data_image0
_chemical_formula_structural       NC9NC5H8C7OC6H10C6NCOC6H11Zn2C4O8
_chemical_formula_sum              "N3 C44 H29 O10 Zn2"
_cell_length_a       17.807436237873137
_cell_length_b       10.299379429549807
_cell_length_c       10.299662537453274
_cell_angle_alpha    85.5174171995128
_cell_angle_beta     89.37814808442572
_cell_angle_gamma    88.38769231292811

_space_group_name_H-M_alt    "P 1"
_space_group_IT_number       1

loop_
  _space_group_symop_operation_xyz
  'x, y, z'

loop_
  _atom_site_type_symbol
  _atom_site_label
  _atom_site_symmetry_multiplicity
  _atom_site_fract_x
  _atom_site_fract_y
  _atom_site_fract_z
  _atom_site_occupancy
  N   N1        1.0  0.7075777636218007  0.3883700298128028  0.5565586978501331  1.0000
  C   C1        1.0  0.6469924968261991  0.3531822610443309  0.5455482077700688  1.0000
  C   C2        1.0  0.5716310838181962  0.30941255178244065  0.531852353595617  1.0000
  C   C3        1.0  0.5535555180267067  0.23803191104561927  0.4268749394031752  1.0000
  C   C4        1.0  0.4803834882312212  0.19542342382338984  0.4134945605825109  1.0000
  C   C5        1.0  0.4242383183140104  0.22381803706487347  0.5050592902516124  1.0000
  C   C6        1.0  0.346475299403162  0.1786510820409719  0.49092144425443185  1.0000
  C   C7        1.0  0.2842936445862987  0.26040258051689436  0.516829167707763  1.0000
  C   C8        1.0  0.2109793124596306  0.21759103802170277  0.5034625491839226  1.0000
  C   C9        1.0  0.1477474601170016  0.3020339153783187  0.529733138030756  1.0000
  N   N2        1.0  0.0969220393517826  0.36992014627484293  0.5508539672297648  1.0000
  C   C10       1.0  0.1992630993319712  0.09277001101078874  0.4641629571150656  1.0000
  C   C11       1.0  0.2605873857692076  0.01100466250095189  0.43824684916014633  1.0000
  C   C12       1.0  0.3337823220290231  0.05342171499403592  0.4514110781005769  1.0000
  C   C13       1.0  0.4430052480266685  0.2956929929650014  0.610255746867912  1.0000
  C   C14       1.0  0.5162301744841244  0.3381111317616816  0.6234805454538082  1.0000
  H   H1        1.0  0.5959606946509511  0.21557176456028548  0.3551693354771335  1.0000
  H   H2        1.0  0.4674833939652543  0.14176849446403517  0.3305931289836599  1.0000
  H   H3        1.0  0.2927850661762074  0.35786263698483833  0.5456689664451628  1.0000
  H   H4        1.0  0.1428002545571575  0.05873583688219952  0.4535810677162315  1.0000
  H   H5        1.0  0.2513977652854625  0.9143651966234703  0.40820629393392904  1.0000
  H   H6        1.0  0.3804271736421564  0.9876797815751481  0.43238780772777496  1.0000
  H   H7        1.0  0.4013167870499251  0.3176135811218401  0.6832560872409805  1.0000
  H   H8        1.0  0.5296587337590648  0.3929871032562178  0.7053398529465988  1.0000
  C   C15       1.0  0.9022616664020405  0.9977525834338913  0.5538602502158276  1.0000
  C   C16       1.0  0.9477870724348746  0.9856657752295063  0.6649402637332364  1.0000
  C   C17       1.0  0.9700444553727621  0.8623633434253747  0.7218273124686052  1.0000
  C   C18       1.0  0.947695666363179  0.7504481352973709  0.6646653170833108  1.0000
  C   C19       1.0  0.9022453153267108  0.7605272944612381  0.5535635784425736  1.0000
  C   C20       1.0  0.8796287533313201  0.8846484718424528  0.49900501601516023  1.0000
  C   C21       1.0  0.01876845359269108  0.8494867723079018  0.8383123929242156  1.0000
  O   O1        1.0  0.06642774106793103  0.7564373877027296  0.8499704425905592  1.0000
  C   C22       1.0  0.013421855472862454  0.9420680759419365  0.941576809989974  1.0000
  C   C23       1.0  0.0776727969221016  0.9684619927416344  0.012198966045182114  1.0000
  C   C24       1.0  0.0730062626822896  0.054406682657579086  0.11076086711798194  1.0000
  C   C25       1.0  0.004184100252554224  0.11395105232916647  0.1405278471664526  1.0000
  C   C26       1.0  0.9398176764934896  0.08725291878679897  0.07215151067035308  1.0000
  C   C27       1.0  0.9441825331998179  0.001402209386441644  0.9735063617407367  1.0000
  H   H9        1.0  0.8173006480430465  0.22792695778739835  0.34307099508229055  1.0000
  H   H10       1.0  0.9666790659004253  0.07234320706583652  0.7065009872631214  1.0000
  H   H11       1.0  0.965276602748912  0.6552977267133467  0.7078454704578929  1.0000
  H   H12       1.0  0.8445324498664573  0.8931623807099649  0.4133700866907768  1.0000
  H   H13       1.0  0.8853082989018779  0.43696718756329556  0.5102436019535261  1.0000
  H   H14       1.0  0.13157027241390185  0.9234705059107327  0.9903616606339483  1.0000
  H   H15       1.0  0.12279877449679599  0.07479754306891429  0.16412804789052582  1.0000
  H   H16       1.0  0.0006743684389554083  0.18035985560729006  0.21692123357235749  1.0000
  H   H17       1.0  0.8864033459008047  0.13265952403405068  0.09598158773492571  1.0000
  H   H18       1.0  0.8933520770425698  0.9803744863519404  0.9233141743831157  1.0000
  C   C28       1.0  0.902305200791887  0.37927801929157057  0.17233512409310037  1.0000
  C   C29       1.0  0.978994456664382  0.40802040839673537  0.1673848823505677  1.0000
  C   C30       1.0  0.017848009178807134  0.4206051751469424  0.048205318470813996  1.0000
  C   C31       1.0  0.9788630053036951  0.4077165460776453  0.9322436325115602  1.0000
  C   C32       1.0  0.902201798319757  0.37900183381356545  0.9350887048871157  1.0000
  C   C33       1.0  0.8644198659300175  0.3644970862792336  0.05569565831671186  1.0000
  N   N3        1.0  0.09607846168377421  0.4519856992445319  0.04656184865035784  1.0000
  C   C34       1.0  0.14924962983049084  0.40961370883252735  0.951585291237393  1.0000
  O   O2        1.0  0.135549437122628  0.31169894521970387  0.8902728750699507  1.0000
  C   C35       1.0  0.22137776435985979  0.4765285955797116  0.9281506539271489  1.0000
  C   C36       1.0  0.23043844262999968  0.6041769797160008  0.9643218560937097  1.0000
  C   C37       1.0  0.29859143789502407  0.6665067869022259  0.9411071650450058  1.0000
  C   C38       1.0  0.3582299220365279  0.6026501109480509  0.8812822609913344  1.0000
  C   C39       1.0  0.34977882396926585  0.4764193084909061  0.8440955962840437  1.0000
  C   C40       1.0  0.2817539310309163  0.4136263720437363  0.866979508809135  1.0000
  H   H19       1.0  0.7574704462959596  0.32627467895209517  0.3888454150962537  1.0000
  H   H20       1.0  0.009093954869918486  0.4198140288429728  0.2563590929386832  1.0000
  H   H21       1.0  0.007960746301586274  0.42230254812977797  0.8396978762283234  1.0000
  H   H22       1.0  0.8053034685650206  0.34232287847874576  0.05864759637891015  1.0000
  H   H23       1.0  0.8725519696239179  0.3696791840122515  0.6086037375081523  1.0000
  H   H24       1.0  0.11658056722574073  0.4982207536603729  0.12516566725208667  1.0000
  H   H25       1.0  0.18478939561082175  0.6568783357382257  0.008744888751699653  1.0000
  H   H26       1.0  0.30505206101575877  0.7646859551158491  0.9690900239138198  1.0000
  H   H27       1.0  0.41090606181649125  0.6511350672678686  0.863373088542084  1.0000
  H   H28       1.0  0.39598310604779874  0.4271091522803019  0.7974661173596234  1.0000
  H   H29       1.0  0.2765806318771722  0.31560883553480634  0.8376026639658876  1.0000
  Zn  Zn1       1.0  0.8199341091611445  0.3830423237447167  0.5549199481174198  1.0000
  Zn  Zn2       1.0  0.9845656743945506  0.3752372616528179  0.5525033979125205  1.0000
  C   C41       1.0  0.902219759271509  0.3738801346316216  0.7909139890869974  1.0000
  C   C42       1.0  0.9022818220033365  0.3844010042089703  0.31650945738603387  1.0000
  C   C43       1.0  0.9022452367376709  0.6163486871094395  0.5484444409055833  1.0000
  C   C44       1.0  0.9022562883839991  0.14193089397097447  0.5589790762389879  1.0000
  O   O3        1.0  0.9647507970112925  0.3831526782693717  0.36397861468282944  1.0000
  O   O4        1.0  0.9647023330322942  0.3692036193929855  0.7416103526271529  1.0000
  O   O5        1.0  0.9647220640078877  0.5650000813921614  0.5458144887958565  1.0000
  O   O6        1.0  0.9647310098711022  0.18735622825958487  0.5597743819584378  1.0000
  O   O7        1.0  0.8397687175039205  0.5709233598028507  0.5476489648893215  1.0000
  O   O8        1.0  0.8397489865008297  0.37512845822875396  0.7434447588668962  1.0000
  O   O9        1.0  0.8397974507424857  0.3890774724093726  0.36581145950649385  1.0000
  O   O10       1.0  0.8397776635862196  0.1932810130750977  0.5616073241556088  1.0000
