data_image0
_chemical_formula_structural       NC10NC3NCH9C7OC6H10C7OC3FC3H9Zn2C4O8
_chemical_formula_sum              "N3 C44 H28 O10 F1 Zn2"
_cell_length_a       19.437513618241372
_cell_length_b       10.299379429549807
_cell_length_c       10.29938172300155
_cell_angle_alpha    85.55361563187328
_cell_angle_beta     90.33093660507195
_cell_angle_gamma    89.52020702266324

_space_group_name_H-M_alt    "P 1"
_space_group_IT_number       1

loop_
  _space_group_symop_operation_xyz
  'x, y, z'

loop_
  _atom_site_type_symbol
  _atom_site_label
  _atom_site_symmetry_multiplicity
  _atom_site_fract_x
  _atom_site_fract_y
  _atom_site_fract_z
  _atom_site_occupancy
  N   N1        1.0  0.6480333486405548  0.41019210707617226  0.575212165906771  1.0000
  C   C1        1.0  0.5891000280421465  0.4272024370619738  0.5722310662077785  1.0000
  C   C2        1.0  0.5156595722068981  0.4484552917917677  0.5685306983538121  1.0000
  C   C3        1.0  0.47390033889241334  0.3472577076529402  0.5569018145279008  1.0000
  C   C4        1.0  0.39801099261794654  0.3573215582011118  0.5496774822624566  1.0000
  C   C5        1.0  0.3584279536691025  0.43818736953876547  0.6153954358558105  1.0000
  C   C6        1.0  0.2822468162829572  0.4295769878893294  0.6069539548421772  1.0000
  C   C7        1.0  0.2491127234971483  0.30822691347559594  0.6116337032067747  1.0000
  C   C8        1.0  0.1773789399017467  0.30185341049149494  0.6044675897029526  1.0000
  C   C9        1.0  0.137808592388628  0.41635734320649487  0.5929840996149047  1.0000
  C   C10       1.0  0.0639603598880997  0.4096456097415302  0.5856499969460507  1.0000
  N   N2        1.0  0.0045914789266803  0.40424996622141385  0.5797538366267789  1.0000
  C   C11       1.0  0.17022601488639602  0.5373969746317129  0.5890497169819735  1.0000
  C   C12       1.0  0.2419441921079604  0.5440244940117043  0.5962777754488329  1.0000
  C   C13       1.0  0.3871006800489801  0.5304942432123254  0.705287277011609  1.0000
  N   N3        1.0  0.4440869573304044  0.5937061692776868  0.6848642221159249  1.0000
  C   C14       1.0  0.4879394498589304  0.5844232874653252  0.5717599870476691  1.0000
  H   H1        1.0  0.49628695618355795  0.25219432602564806  0.5448091734729559  1.0000
  H   H2        1.0  0.3733037972112537  0.2877948487674946  0.4913804757017006  1.0000
  H   H3        1.0  0.2785632163406793  0.21831254039966996  0.6226814582002316  1.0000
  H   H4        1.0  0.1527863277185615  0.20762306943250386  0.6083829974389636  1.0000
  H   H5        1.0  0.1400900117966418  0.6266568380923889  0.5803142949162405  1.0000
  H   H6        1.0  0.266055278203609  0.638667652855262  0.5923467842141352  1.0000
  H   H7        1.0  0.3570885235739564  0.5508966092566909  0.7896474055056897  1.0000
  H   H8        1.0  0.5306904580846441  0.6547403896956083  0.5775022750297956  1.0000
  H   H9        1.0  0.4582812446199581  0.6125165712969833  0.48110642634531176  1.0000
  C   C15       1.0  0.826323195162931  0.02582896630688225  0.5776372219945571  1.0000
  C   C16       1.0  0.8680118769724647  0.015275525531897483  0.6899128267603032  1.0000
  C   C17       1.0  0.8883934129723101  0.8927243936261328  0.7473843425718059  1.0000
  C   C18       1.0  0.8679281757273293  0.780054773973194  0.6896354807611613  1.0000
  C   C19       1.0  0.8263082292119318  0.7886029637645826  0.577340126560691  1.0000
  C   C20       1.0  0.805597695759575  0.9119627759629374  0.5221875924757797  1.0000
  C   C21       1.0  0.933011187106576  0.8814874019617501  0.8651490696686299  1.0000
  O   O1        1.0  0.9766568121548351  0.7899769049485685  0.8780610946597207  1.0000
  C   C22       1.0  0.9281119603269372  0.9739623840337703  0.9682704683872712  1.0000
  C   C23       1.0  0.9869504400839032  0.002465741707069702  0.04058191686535395  1.0000
  C   C24       1.0  0.9826741399538415  0.08832298119205251  0.13901880199509187  1.0000
  C   C25       1.0  0.9196465964845717  0.1456746811554961  0.1669739410761112  1.0000
  C   C26       1.0  0.860702296860245  0.11686482003703524  0.09690522272868007  1.0000
  C   C27       1.0  0.8647023257170691  0.031091814099720283  0.998377152441563  1.0000
  H   H10       1.0  0.7485224950490613  0.2531395076272871  0.36461679307389705  1.0000
  H   H11       1.0  0.8853118439855933  0.10258639357229282  0.7319697946755719  1.0000
  H   H12       1.0  0.8840274435730006  0.6854966987808686  0.7332773395096122  1.0000
  H   H13       1.0  0.7734591877597842  0.9192945850790033  0.4356309617229921  1.0000
  H   H14       1.0  0.8107986613630324  0.4644711266739793  0.5335753936964762  1.0000
  H   H15       1.0  0.03630986950179982  0.9591923600592623  0.020163505853967756  1.0000
  H   H16       1.0  0.028272197471006733  0.11034772941001036  0.19369516318825553  1.0000
  H   H17       1.0  0.9164302996554184  0.21201914833883118  0.24327325142338008  1.0000
  H   H18       1.0  0.81178527201187  0.16057010934631344  0.11932907554314309  1.0000
  H   H19       1.0  0.8181536401416755  0.008398863205567375  0.9468483982368627  1.0000
  C   C28       1.0  0.826373630918709  0.4071138491542785  0.19612178866676944  1.0000
  C   C29       1.0  0.8481485135946205  0.27628892505728975  0.2053111715337006  1.0000
  C   C30       1.0  0.8598785963116558  0.2107482524521358  0.09274661383322802  1.0000
  C   C31       1.0  0.8480827044778604  0.276583172917793  0.9700441691586996  1.0000
  C   C32       1.0  0.8262577650107329  0.4073180375305665  0.9588555896417819  1.0000
  C   C33       1.0  0.8157029342317286  0.4719279398966354  0.07248816126945279  1.0000
  C   C34       1.0  0.8821750298820766  0.07220020933468985  0.10232969505850575  1.0000
  O   O2        1.0  0.8609859492437588  0.9993049793974671  0.017907049469650937  1.0000
  C   C35       1.0  0.9285141095701996  0.016351647128598712  0.20758659806895574  1.0000
  C   C36       1.0  0.9229742794467675  0.88447546301605  0.2528405486238876  1.0000
  C   C37       1.0  0.9669695704760549  0.8305320462823507  0.3509781254763249  1.0000
  F   F1        1.0  0.9608796117897623  0.7035589888081387  0.3946188146799896  1.0000
  C   C38       1.0  0.017216234571803657  0.9073227506984483  0.40405585814915423  1.0000
  C   C39       1.0  0.02374687252807206  0.037976904657427646  0.35874993895123275  1.0000
  C   C40       1.0  0.979888004017561  0.09232984208159767  0.26068491537686  1.0000
  H   H20       1.0  0.7842711206728921  0.6533999354015612  0.3861352990620437  1.0000
  H   H21       1.0  0.8552774070687438  0.2247766665721398  0.3002275707442539  1.0000
  H   H22       1.0  0.8566112168802194  0.22588862416637223  0.8831466725350494  1.0000
  H   H23       1.0  0.798915799365423  0.5727839120329405  0.06459977247262372  1.0000
  H   H24       1.0  0.8173191336929733  0.45721109547162486  0.6271202082352705  1.0000
  H   H25       1.0  0.8842177778680784  0.8236015213744607  0.2129978814541993  1.0000
  H   H26       1.0  0.05129553621444005  0.865543984785358  0.47992267219693185  1.0000
  H   H27       1.0  0.06304326393091109  0.09709400981916194  0.3992390873375298  1.0000
  H   H28       1.0  0.9866503107781908  0.1931819150771139  0.22547102881149494  1.0000
  Zn  Zn1       1.0  0.7509283273982902  0.40847384616633087  0.576530304244621  1.0000
  Zn  Zn2       1.0  0.9016965049676257  0.4059575597937377  0.5784463722606183  1.0000
  C   C41       1.0  0.8262782511555651  0.4021055033234646  0.8146845474135205  1.0000
  C   C42       1.0  0.8263482275426404  0.4123275139116762  0.3402922768426444  1.0000
  C   C43       1.0  0.8263082990289097  0.6444211074817192  0.5722211016369143  1.0000
  C   C44       1.0  0.826318128242764  0.17001035023362232  0.5827557918114397  1.0000
  O   O3        1.0  0.8835554397013756  0.4131166837828437  0.38940434972137794  1.0000
  O   O4        1.0  0.8835005973098028  0.3994055504365346  0.7670263523616898  1.0000
  O   O5        1.0  0.8835240898469338  0.5950784785277059  0.5712353940996961  1.0000
  O   O6        1.0  0.8835318957318854  0.21744376581502212  0.5851952099517779  1.0000
  O   O7        1.0  0.7690928851842518  0.5969876410051436  0.5697814658927696  1.0000
  O   O8        1.0  0.7690693926238741  0.4013162732938682  0.7655723543018831  1.0000
  O   O9        1.0  0.7691242352992341  0.41502736096264603  0.3879487902873837  1.0000
  O   O10       1.0  0.7691006913123248  0.21935443373157204  0.5837397478886861  1.0000
