data_image0
_chemical_formula_structural       NC9NC5H8C7OC4NC3H9C7OC4NC3H9Zn2C4O8
_chemical_formula_sum              "N4 C46 H26 O10 Zn2"
_cell_length_a       17.807436237873137
_cell_length_b       10.299371701877257
_cell_length_c       10.299375074045738
_cell_angle_alpha    85.5592431839292
_cell_angle_beta     89.38493469783968
_cell_angle_gamma    88.40037932452064

_space_group_name_H-M_alt    "P 1"
_space_group_IT_number       1

loop_
  _space_group_symop_operation_xyz
  'x, y, z'

loop_
  _atom_site_type_symbol
  _atom_site_label
  _atom_site_symmetry_multiplicity
  _atom_site_fract_x
  _atom_site_fract_y
  _atom_site_fract_z
  _atom_site_occupancy
  N   N1        1.0  0.7076515048520978  0.3882949116369323  0.557539995788843  1.0000
  C   C1        1.0  0.6470611022704279  0.3531094296610138  0.5465033379764244  1.0000
  C   C2        1.0  0.5716933009089684  0.309342564917362  0.5327749340242047  1.0000
  C   C3        1.0  0.5536016443291814  0.23796722803348302  0.427742184692135  1.0000
  C   C4        1.0  0.4804233923785364  0.1953615102489088  0.4143301183431307  1.0000
  C   C5        1.0  0.4242880418823433  0.22375361292020512  0.5059182172010428  1.0000
  C   C6        1.0  0.3465184303564228  0.17858959325763446  0.49174678222007784  1.0000
  C   C7        1.0  0.2843487299296144  0.2603357762122023  0.5177153098991607  1.0000
  C   C8        1.0  0.2110281513168008  0.21752701572893196  0.5043168549494919  1.0000
  C   C9        1.0  0.1478086132830163  0.301964406512502  0.5306502364307668  1.0000
  N   N2        1.0  0.0969930924451469  0.36984622657510924  0.5518215465931195  1.0000
  C   C10       1.0  0.199293703466737  0.09271410257099899  0.4649244318870429  1.0000
  C   C11       1.0  0.2606060332144134  0.010954070515199588  0.4389475092962636  1.0000
  C   C12       1.0  0.333807152963914  0.05336836726883898  0.45214327914449837  1.0000
  C   C13       1.0  0.4430711389486324  0.2956232323247865  0.6111703783135334  1.0000
  C   C14       1.0  0.5163022531884747  0.3380386148268091  0.6244267202564997  1.0000
  H   H1        1.0  0.5959991033550188  0.21550906159954009  0.3560181154114328  1.0000
  H   H2        1.0  0.46751092903710173  0.1417105997805621  0.3313869839793029  1.0000
  H   H3        1.0  0.2928542625032978  0.3577895122440322  0.5466275406381635  1.0000
  H   H4        1.0  0.1428258959196132  0.058682139720647175  0.4543172344811097  1.0000
  H   H5        1.0  0.251402321471079  0.9143208834724987  0.4088350925871933  1.0000
  H   H6        1.0  0.3804425155388785  0.9876306938511034  0.43307116131498735  1.0000
  H   H7        1.0  0.4013904172786116  0.3175418637191405  0.6841888226796256  1.0000
  H   H8        1.0  0.5297432619981154  0.39291049953618207  0.70632859974106  1.0000
  C   C15       1.0  0.902286599952302  0.9977018890726205  0.5545543191035427  1.0000
  C   C16       1.0  0.9059460212172963  0.006921482448249083  0.4178321952631656  1.0000
  C   C17       1.0  0.9069386935928088  0.894443121854301  0.3488234747075092  1.0000
  C   C18       1.0  0.9059552929361345  0.7716526063612414  0.4181494630483531  1.0000
  C   C19       1.0  0.9023651728936325  0.7604289228242714  0.5548183838844807  1.0000
  C   C20       1.0  0.9003539418787313  0.8740638561153717  0.6222171187139212  1.0000
  C   C21       1.0  0.9115917768293589  0.9039972107916783  0.204501469634647  1.0000
  O   O1        1.0  0.9477533949902529  0.8165578455999346  0.14902308158027422  1.0000
  C   C22       1.0  0.8752091104400943  0.012665681003322993  0.12312156332014546  1.0000
  C   C23       1.0  0.9073924478529598  0.05583072359816854  0.0026755457211675715  1.0000
  C   C24       1.0  0.8729909285617206  0.15739406864908445  0.924388024797278  1.0000
  C   C25       1.0  0.9066318603362372  0.20167492880127647  0.8017343941045416  1.0000
  N   N3        1.0  0.9336776708049386  0.23726717517134843  0.7031386118259371  1.0000
  C   C26       1.0  0.805845259534623  0.2157388302076726  0.9655470835910935  1.0000
  C   C27       1.0  0.773027853968572  0.17239386877412177  0.08426281982452588  1.0000
  C   C28       1.0  0.8072136716698906  0.07113822336201436  0.16254211093682813  1.0000
  H   H9        1.0  0.8965361314276925  0.18756365029975397  0.8126333612958099  1.0000
  H   H10       1.0  0.9088699862540977  0.10172682717901083  0.3649012775501945  1.0000
  H   H11       1.0  0.9072773624251396  0.684772647133565  0.36511643346752654  1.0000
  H   H12       1.0  0.8975332064902152  0.8661523120671434  0.7276201248931549  1.0000
  H   H13       1.0  0.9016183261237318  0.42862690288530103  0.6073559621492186  1.0000
  H   H14       1.0  0.9594938810104982  0.011282826396765255  0.9703326171552691  1.0000
  H   H15       1.0  0.7787669072904063  0.29426111285126466  0.9057037690298642  1.0000
  H   H16       1.0  0.7207982206753502  0.21696446550077875  0.11545459574823025  1.0000
  H   H17       1.0  0.7800661701750322  0.03768033080673128  0.2530994677981455  1.0000
  C   C29       1.0  0.9023514372937967  0.37920656061268243  0.1732992670514768  1.0000
  C   C30       1.0  0.9601884007384465  0.4695770815388116  0.16403866723895488  1.0000
  C   C31       1.0  0.9887762346856627  0.5162653494169791  0.04211939191665248  1.0000
  C   C32       1.0  0.9600667413499057  0.4693451102364128  0.9288150552199541  1.0000
  C   C33       1.0  0.9023003087774761  0.3789242984948624  0.9360734750701369  1.0000
  C   C34       1.0  0.873642240435716  0.33463592053515434  0.05879088935487364  1.0000
  C   C35       1.0  0.050387411331294985  0.610664966901687  0.03227077726465466  1.0000
  O   O2        1.0  0.09839573681617098  0.6037051025442786  0.9419290957589288  1.0000
  C   C36       1.0  0.057524983231774796  0.7129724212086941  0.12482813714754704  1.0000
  C   C37       1.0  0.12897043558078103  0.7561481267566157  0.1555515388331472  1.0000
  C   C38       1.0  0.13626042910227443  0.8538146670852182  0.24169528279687524  1.0000
  C   C39       1.0  0.20962948405007387  0.8966898955966056  0.27342146799524225  1.0000
  N   N4        1.0  0.26860993796991584  0.9311511319561501  0.29892198333650843  1.0000
  C   C40       1.0  0.07211204600741539  0.9097054488068659  0.2968492626027974  1.0000
  C   C41       1.0  0.0009170701306733253  0.8685295281090928  0.26562192832317266  1.0000
  C   C42       1.0  0.9934776928262249  0.7711400511927828  0.1797560310772084  1.0000
  H   H18       1.0  0.7939962106373849  0.20716573294416207  0.39819788082296537  1.0000
  H   H19       1.0  0.9836461612673411  0.5026669195813565  0.2518892770826071  1.0000
  H   H20       1.0  0.9824321729431932  0.5045212582253427  0.8347540053080329  1.0000
  H   H21       1.0  0.8290544172414829  0.2649661709790885  0.06512631244949496  1.0000
  H   H22       1.0  0.8805421896578404  0.3433684834615669  0.611460208938778  1.0000
  H   H23       1.0  0.17891008952276843  0.7130615878466964  0.11342323372945207  1.0000
  H   H24       1.0  0.07713141310373639  0.9853457271067658  0.3634811191187908  1.0000
  H   H25       1.0  0.9513518012451975  0.9125770265749611  0.30759625633842336  1.0000
  H   H26       1.0  0.93767347696001  0.7423906994010316  0.15526141701546936  1.0000
  Zn  Zn1       1.0  0.820007074737122  0.38296755157938756  0.5558972848267509  1.0000
  Zn  Zn2       1.0  0.9846375025570863  0.3751629965182086  0.5534749310107809  1.0000
  C   C43       1.0  0.9023077829367143  0.37380403599437595  0.7918910218618764  1.0000
  C   C44       1.0  0.9023385922769045  0.38432806544842557  0.3174812955634698  1.0000
  C   C45       1.0  0.9023467988570238  0.6162593922606128  0.5495931121884636  1.0000
  C   C46       1.0  0.9022995200143671  0.1418711515187563  0.5597792747651882  1.0000
  O   O3        1.0  0.9648106701672428  0.38307943554936474  0.3649508288406569  1.0000
  O   O4        1.0  0.9647863903970555  0.36912820960399095  0.7425826038847745  1.0000
  O   O5        1.0  0.9648170539440398  0.5649140154819974  0.5469253403854875  1.0000
  O   O6        1.0  0.9647799504505267  0.18729364166077533  0.5606079957904386  1.0000
  O   O7        1.0  0.8398645706633968  0.5708369091015497  0.548764220866893  1.0000
  O   O8        1.0  0.839833907278356  0.3750526635517033  0.7444214156576738  1.0000
  O   O9        1.0  0.8398581871984622  0.3890038448166657  0.36678807912206723  1.0000
  O   O10       1.0  0.8398274674711931  0.19321804160338685  0.562445343441154  1.0000
