data_image0
_chemical_formula_structural       NC12NC2H8C7OC6H10C6SCOC6H10Zn2C4O8
_chemical_formula_sum              "N2 C44 H28 O10 S1 Zn2"
_cell_length_a       17.80743265337812
_cell_length_b       10.299379429549807
_cell_length_c       10.302041481415108
_cell_angle_alpha    85.5191038852169
_cell_angle_beta     91.53022125456708
_cell_angle_gamma    89.43379168207073

_space_group_name_H-M_alt    "P 1"
_space_group_IT_number       1

loop_
  _space_group_symop_operation_xyz
  'x, y, z'

loop_
  _atom_site_type_symbol
  _atom_site_label
  _atom_site_symmetry_multiplicity
  _atom_site_fract_x
  _atom_site_fract_y
  _atom_site_fract_z
  _atom_site_occupancy
  N   N1        1.0  0.70743306532011  0.40720442019474334  0.6011402144638065  1.0000
  C   C1        1.0  0.6566146495826964  0.43678636568340634  0.5324465740199353  1.0000
  C   C2        1.0  0.5933915254113038  0.47358415745018223  0.4470003320895277  1.0000
  C   C3        1.0  0.6051207908098578  0.5276474732165024  0.32039014356144535  1.0000
  C   C4        1.0  0.5438049820988796  0.5629408386528689  0.23733987938567735  1.0000
  C   C5        1.0  0.4706056187748705  0.5444345738794243  0.28023995806347557  1.0000
  C   C6        1.0  0.45789956879489446  0.4902523025494008  0.4073182241332456  1.0000
  C   C7        1.0  0.5200726940186029  0.45496219633822155  0.4903519792554598  1.0000
  C   C8        1.0  0.3801319384658675  0.4706309545394973  0.453078341274219  1.0000
  C   C9        1.0  0.3613419108234834  0.4977796686287943  0.5800833542641568  1.0000
  C   C10       1.0  0.2881125994220943  0.4793149671737822  0.6230239712823296  1.0000
  C   C11       1.0  0.2327303297306534  0.43344700510657574  0.5397974425936245  1.0000
  C   C12       1.0  0.1573643888109406  0.41442901091551354  0.5841388644941832  1.0000
  N   N2        1.0  0.09677550941854611  0.39913982265747183  0.6197863173192866  1.0000
  C   C13       1.0  0.2508288538204766  0.4061292003161938  0.413335335095796  1.0000
  C   C14       1.0  0.32400531654768255  0.424608767208126  0.37013888490323454  1.0000
  H   H1        1.0  0.6615870118780113  0.5424827878589187  0.2859557078930399  1.0000
  H   H2        1.0  0.5530046048633463  0.6050706900114575  0.139568074317439  1.0000
  H   H3        1.0  0.42396727087505587  0.5740921729084478  0.2146535160062879  1.0000
  H   H4        1.0  0.5115714952177604  0.4114469895693802  0.5879998741986445  1.0000
  H   H5        1.0  0.40301559181853  0.5349409813250237  0.645627686298244  1.0000
  H   H6        1.0  0.2746660715466944  0.5011316055320574  0.7210021792621666  1.0000
  H   H7        1.0  0.2084382485612748  0.37023512016339377  0.3482033984729773  1.0000
  H   H8        1.0  0.3369234838471716  0.4012563934291571  0.2724645038054876  1.0000
  C   C15       1.0  0.9021160752866432  0.021779931478645764  0.6106178429656801  1.0000
  C   C16       1.0  0.94765229481337  0.01091052781269819  0.7245196138820222  1.0000
  C   C17       1.0  0.9699152190340651  0.8882033562948948  0.7827856309510448  1.0000
  C   C18       1.0  0.9475608619074943  0.7756904421448563  0.7242390135626229  1.0000
  C   C19       1.0  0.9020996949920105  0.784554198203206  0.6103202163995023  1.0000
  C   C20       1.0  0.8794778226162094  0.9080705984721715  0.5543596905923518  1.0000
  C   C21       1.0  0.01865055375926028  0.8766296580227808  0.9022912723813228  1.0000
  O   O1        1.0  0.0663108381226154  0.7848518657423669  0.9169272521363503  1.0000
  C   C22       1.0  0.013314161710992867  0.9690711828907839  0.005197716539811492  1.0000
  C   C23       1.0  0.07757186450407949  0.9971808807452216  0.07982196375552586  1.0000
  C   C24       1.0  0.07291507016061827  0.08300380282862974  0.17806949751374934  1.0000
  C   C25       1.0  0.004096066265740994  0.14071321622055333  0.20352556237199648  1.0000
  C   C26       1.0  0.9397231031243811  0.11229628293499494  0.13113939926554363  1.0000
  C   C27       1.0  0.9440782126913916  0.026559292081586472  0.032789769873157404  1.0000
  H   H9        1.0  0.8171345322687799  0.24968224938192196  0.3945633279662586  1.0000
  H   H10       1.0  0.9665483281792691  0.09809302985102875  0.7672523379973653  1.0000
  H   H11       1.0  0.9651460021984823  0.681010176897178  0.7685088044142037  1.0000
  H   H12       1.0  0.8443731827011448  0.915645989604501  0.46654942122641674  1.0000
  H   H13       1.0  0.8851584587935252  0.460541120158568  0.5659509049035549  1.0000
  H   H14       1.0  0.13146701189701648  0.9536264644123815  0.06136037697940688  1.0000
  H   H15       1.0  0.12271268734247665  0.10472430356304252  0.23453848780578257  1.0000
  H   H16       1.0  0.0005938833087539841  0.207030499306897  0.2796819935485336  1.0000
  H   H17       1.0  0.8863112956978517  0.1562787599277713  0.15162351799809148  1.0000
  H   H18       1.0  0.8932429677766274  0.00417432965523723  0.9794301347702712  1.0000
  C   C28       1.0  0.9021219653233085  0.40329604573703204  0.22918262798499134  1.0000
  C   C29       1.0  0.9365605231086438  0.525688370673784  0.21987105096249704  1.0000
  C   C30       1.0  0.954030263117474  0.5860561952190393  0.09829875300900093  1.0000
  C   C31       1.0  0.9366318322823506  0.5252830073065906  0.984769211282694  1.0000
  C   C32       1.0  0.9020938227381745  0.4030380546036092  0.9917554717364752  1.0000
  C   C33       1.0  0.8850731077427394  0.3426223715415426  0.1145427155582095  1.0000
  S   S1        1.0  0.9986953994995748  0.7416731475784257  0.08785436685749581  1.0000
  C   C34       1.0  0.09124128051662272  0.669951401047783  0.09488207335060594  1.0000
  O   O2        1.0  0.12064265537558061  0.6461682806947191  0.9892388920854387  1.0000
  C   C35       1.0  0.13265071720821764  0.6377491440789589  0.2204019258187322  1.0000
  C   C36       1.0  0.1992973535285727  0.5626409600714466  0.22381467449737347  1.0000
  C   C37       1.0  0.23845407260246687  0.5309313267693767  0.34165403371926484  1.0000
  C   C38       1.0  0.21176162341373872  0.5738342337059315  0.4572967925384188  1.0000
  C   C39       1.0  0.14592243328583754  0.6487668726515372  0.45530304199775307  1.0000
  C   C40       1.0  0.1065414681885779  0.6808553075358879  0.337752203754623  1.0000
  H   H19       1.0  0.8370987199049752  0.17272336808521516  0.4540362494280621  1.0000
  H   H20       1.0  0.9500552473423057  0.5743395087347114  0.3068126217417053  1.0000
  H   H21       1.0  0.9504449914765963  0.5735959997132549  0.8914404611584987  1.0000
  H   H22       1.0  0.8585251784018496  0.24826635716234602  0.12080080662077197  1.0000
  H   H23       1.0  0.889167613074887  0.35638640015685374  0.6670954140853862  1.0000
  H   H24       1.0  0.22099893893171796  0.5277315174400665  0.1355487465076921  1.0000
  H   H25       1.0  0.2895227683173569  0.4728856900016105  0.34327493318331936  1.0000
  H   H26       1.0  0.24214128576244676  0.5491523773923961  0.5484231389275076  1.0000
  H   H27       1.0  0.12538743189206514  0.6822650318856331  0.5449794169059914  1.0000
  H   H28       1.0  0.0560428701857445  0.7398312480767324  0.33938549882552693  1.0000
  Zn  Zn1       1.0  0.8197888875639248  0.4048736815271039  0.6065285636354394  1.0000
  Zn  Zn2       1.0  0.9844196845172193  0.4014599636385896  0.6144085630404885  1.0000
  C   C41       1.0  0.902097557842142  0.39791287816339627  0.8476147879715359  1.0000
  C   C42       1.0  0.9021128119622773  0.4084223684007833  0.3733225515532208  1.0000
  C   C43       1.0  0.9020991113096113  0.6403754481008992  0.6052022438050348  1.0000
  C   C44       1.0  0.9021112023487862  0.16595823920720498  0.6157351628633125  1.0000
  O   O3        1.0  0.9645862695955782  0.40884165488215474  0.4246876475552199  1.0000
  O   O4        1.0  0.9645750658339042  0.39490167913702234  0.8022300558043305  1.0000
  O   O5        1.0  0.9645754780151659  0.5906932877263416  0.6064801704411427  1.0000
  O   O6        1.0  0.9645858012403735  0.21305005678142708  0.6204374328722719  1.0000
  O   O7        1.0  0.8396227146603593  0.5932835895506174  0.600499691107768  1.0000
  O   O8        1.0  0.8396223024447084  0.39749354138372395  0.7962495066314783  1.0000
  O   O9        1.0  0.8396335063149779  0.41143347239719374  0.4187055373395401  1.0000
  O   O10       1.0  0.839633037953305  0.21564186497422466  0.6144554200068411  1.0000
