data_image0
_chemical_formula_structural       NC10NC3NCH9C7OC4NC3H9C7OC3NC3H11Zn2C4O8
_chemical_formula_sum              "N5 C45 H29 O10 Zn2"
_cell_length_a       19.437513618241372
_cell_length_b       10.299371701877257
_cell_length_c       10.298749378158432
_cell_angle_alpha    85.57636868446646
_cell_angle_beta     90.35618214226261
_cell_angle_gamma    89.53225479237402

_space_group_name_H-M_alt    "P 1"
_space_group_IT_number       1

loop_
  _space_group_symop_operation_xyz
  'x, y, z'

loop_
  _atom_site_type_symbol
  _atom_site_label
  _atom_site_symmetry_multiplicity
  _atom_site_fract_x
  _atom_site_fract_y
  _atom_site_fract_z
  _atom_site_occupancy
  N   N1        1.0  0.6478593658584902  0.41059802510953025  0.5761246717352615  1.0000
  C   C1        1.0  0.5889272854733395  0.4276083853733601  0.5731558635834246  1.0000
  C   C2        1.0  0.5154883848697919  0.44886126962786954  0.5694708550880243  1.0000
  C   C3        1.0  0.4737148714706764  0.34767356410707095  0.5577661913362282  1.0000
  C   C4        1.0  0.39782497546049733  0.3577393031244622  0.5505486373614195  1.0000
  C   C5        1.0  0.35826661001808746  0.4385778918225529  0.6163322481019635  1.0000
  C   C6        1.0  0.2820825060567256  0.4299709034181185  0.6078836455111996  1.0000
  C   C7        1.0  0.24893566700327363  0.3086262949890606  0.6124742072515317  1.0000
  C   C8        1.0  0.1771994718309999  0.30225561806228085  0.6053027392976054  1.0000
  C   C9        1.0  0.1376394902531857  0.41675681425089506  0.5939027651358115  1.0000
  C   C10       1.0  0.0637887680983847  0.4100479840916391  0.5865630430633377  1.0000
  N   N2        1.0  0.0044178856299744  0.4046546746379658  0.5806623652208085  1.0000
  C   C11       1.0  0.1700697987902805  0.5377907424479309  0.5900574072834688  1.0000
  C   C12       1.0  0.24179043113213003  0.5444153997538101  0.5972910133777851  1.0000
  C   C13       1.0  0.38697099727037093  0.5308485955194202  0.7063003808792405  1.0000
  N   N3        1.0  0.44395968680696934  0.5940638352721768  0.6859221574589283  1.0000
  C   C14       1.0  0.4877845356856901  0.5848202385030441  0.5728008400465352  1.0000
  H   H1        1.0  0.49608779959500676  0.2526198626216636  0.5456022581626767  1.0000
  H   H2        1.0  0.3730961446031184  0.2882366137160488  0.49219501794562137  1.0000
  H   H3        1.0  0.278378497197917  0.2187133752776298  0.6234565648404071  1.0000
  H   H4        1.0  0.1525970281262386  0.20802942500001143  0.6091489175991336  1.0000
  H   H5        1.0  0.1399419271686854  0.6270483985730975  0.581387108399509  1.0000
  H   H6        1.0  0.2659113921896374  0.6390543918908074  0.5934295550097384  1.0000
  H   H7        1.0  0.3569809970671529  0.5512208751757612  0.7906832035975697  1.0000
  H   H8        1.0  0.5305449168812619  0.6551312774829914  0.5785955722630316  1.0000
  H   H9        1.0  0.45810822836385573  0.6129429395269634  0.4821598271790961  1.0000
  C   C15       1.0  0.8261059260012966  0.026256444074506557  0.5782661178551445  1.0000
  C   C16       1.0  0.829437464163772  0.03555292632942564  0.44163500298938185  1.0000
  C   C17       1.0  0.8303365792527051  0.9230859290828285  0.3726497114236096  1.0000
  C   C18       1.0  0.82944600107283  0.8002844424429362  0.4419525275269056  1.0000
  C   C19       1.0  0.8261779213405759  0.788986080389816  0.5785322628815619  1.0000
  C   C20       1.0  0.824345776629563  0.9025764519843563  0.6458806735201046  1.0000
  C   C21       1.0  0.8345770153690004  0.9327465662816251  0.22844459155882157  1.0000
  O   O1        1.0  0.8676858378170164  0.8464523326731441  0.17391661575155837  1.0000
  C   C22       1.0  0.8012459740163584  0.04022209964461587  0.14610305402891588  1.0000
  C   C23       1.0  0.8307020924354779  0.08438515545096337  0.026500087989323573  1.0000
  C   C24       1.0  0.7991858343436594  0.18482012445573348  0.9473032468083731  1.0000
  C   C25       1.0  0.8299764998560004  0.23014516403083096  0.8255309778053666  1.0000
  N   N4        1.0  0.8547308250011177  0.2665768877896615  0.7276437715451842  1.0000
  C   C26       1.0  0.7376997209449688  0.24102018433790517  0.9866951209933377  1.0000
  C   C27       1.0  0.7076626722414481  0.1966563266842587  0.10455103429353962  1.0000
  C   C28       1.0  0.7389813894374025  0.09652212581485498  0.18373396314667012  1.0000
  H   H10       1.0  0.8208769469469452  0.21601023902946603  0.836203851712372  1.0000
  H   H11       1.0  0.8321075828067047  0.1304364558478932  0.38877902389520624  1.0000
  H   H12       1.0  0.8306490876003807  0.7134311793958771  0.3889522340661047  1.0000
  H   H13       1.0  0.8217777805822931  0.8946056455026518  0.7512135292666033  1.0000
  H   H14       1.0  0.8255015526693676  0.4571756949884236  0.631052238490188  1.0000
  H   H15       1.0  0.8784119557226181  0.0415013109046074  0.9955283837786189  1.0000
  H   H16       1.0  0.7128926917855742  0.3186548212120732  0.9261361263708046  1.0000
  H   H17       1.0  0.6598352367589349  0.2395584101628374  0.13436816332015922  1.0000
  H   H18       1.0  0.7141327736137666  0.06221909842306528  0.2735797482273592  1.0000
  C   C29       1.0  0.8261101940242641  0.4076498053511124  0.19699774200686382  1.0000
  C   C30       1.0  0.8637019841129654  0.5238882661615802  0.18749710912456674  1.0000
  C   C31       1.0  0.8820204250726674  0.5834788779284465  0.0654457398907522  1.0000
  C   C32       1.0  0.8637047230482376  0.5239370820641747  0.9522531315522711  1.0000
  C   C33       1.0  0.8261736316255701  0.4075927154323242  0.9598006396077614  1.0000
  C   C34       1.0  0.8074565041796854  0.35037058485788575  0.0825964721466752  1.0000
  C   C35       1.0  0.9222749374749358  0.7055761695430292  0.05532059561133429  1.0000
  O   O2        1.0  0.9652660918579716  0.723202407309445  0.9645271862735041  1.0000
  C   C36       1.0  0.9137597815749109  0.8076691944181276  0.14813736754525197  1.0000
  C   C37       1.0  0.8493969870773754  0.8313161148333768  0.2040303743456955  1.0000
  C   C38       1.0  0.8417103088226255  0.9289465331919289  0.2906667307426094  1.0000
  N   N5        1.0  0.7762094304184316  0.9518900456629926  0.3475128880386882  1.0000
  C   C39       1.0  0.8984891042433115  0.004251412590097647  0.3208135150694176  1.0000
  C   C40       1.0  0.9623099246904828  0.9825641826776279  0.26445495506672856  1.0000
  C   C41       1.0  0.9699569838522912  0.8852460960724615  0.17819500747660388  1.0000
  H   H19       1.0  0.7559919314063432  0.1869874561021092  0.42240092823326125  1.0000
  H   H20       1.0  0.8794183904212608  0.5674722178457763  0.27525852145246854  1.0000
  H   H21       1.0  0.8782187485950149  0.5692172348608739  0.8580473613494188  1.0000
  H   H22       1.0  0.7784832927375708  0.2607692591550108  0.08916799639974271  1.0000
  H   H23       1.0  0.7555077864950728  0.18751848383145497  0.7667804444055464  1.0000
  H   H24       1.0  0.804999990077174  0.7750487828784938  0.17940253587925925  1.0000
  H   H25       1.0  0.7335417784355135  0.896329066268482  0.32572230703741245  1.0000
  H   H26       1.0  0.7699125389548165  0.024513583711703202  0.4119456921993596  1.0000
  H   H27       1.0  0.8932096248886617  0.07995395854794696  0.3875056859352253  1.0000
  H   H28       1.0  0.0059721603373181775  0.04130358486817176  0.2876676540112273  1.0000
  H   H29       1.0  0.019937358382138948  0.8697682491730534  0.13582552610068777  1.0000
  Zn  Zn1       1.0  0.7507544583806118  0.408879412760889  0.577441660433029  1.0000
  Zn  Zn2       1.0  0.9015227991982275  0.40636261661408835  0.579356043582735  1.0000
  C   C42       1.0  0.8261596322019522  0.4024298602573768  0.8156127361404095  1.0000
  C   C43       1.0  0.8261192719277536  0.4128137802481977  0.34118511682947106  1.0000
  C   C44       1.0  0.8261603390733692  0.6448144054879672  0.5733063011437889  1.0000
  C   C45       1.0  0.8261185134681246  0.17042767556495342  0.583491619872925  1.0000
  O   O3        1.0  0.8833381176247813  0.4135860806209797  0.3903022134392671  1.0000
  O   O4        1.0  0.883370468519979  0.39974639014701707  0.7679482378256322  1.0000
  O   O5        1.0  0.8833702681435889  0.5954749885659898  0.5722840678851435  1.0000
  O   O6        1.0  0.8833382665469253  0.21785749235834828  0.5859662853467733  1.0000
  O   O7        1.0  0.7689389395820784  0.5973845378769023  0.5708314180088747  1.0000
  O   O8        1.0  0.7689391400968446  0.40165749977085663  0.7664955192424139  1.0000
  O   O9        1.0  0.7689067891132305  0.41549714510480373  0.3888479333069439  1.0000
  O   O10       1.0  0.7689069380397849  0.2197685475461042  0.584512102587317  1.0000
