data_image0
_chemical_formula_structural       NC12NC2H8C7OC6H10C6NCOC6H11Zn2C4O8
_chemical_formula_sum              "N3 C44 H29 O10 Zn2"
_cell_length_a       19.240039667572717
_cell_length_b       10.299379429549807
_cell_length_c       10.299662537453274
_cell_angle_alpha    85.5174171995128
_cell_angle_beta     89.98643935911937
_cell_angle_gamma    89.99618039744932

_space_group_name_H-M_alt    "P 1"
_space_group_IT_number       1

loop_
  _space_group_symop_operation_xyz
  'x, y, z'

loop_
  _atom_site_type_symbol
  _atom_site_label
  _atom_site_symmetry_multiplicity
  _atom_site_fract_x
  _atom_site_fract_y
  _atom_site_fract_z
  _atom_site_occupancy
  N   N1        1.0  0.6546079472241539  0.42189992891005956  0.5669260482287328  1.0000
  C   C1        1.0  0.5944595784142599  0.42190001292727675  0.5669259662608497  1.0000
  C   C2        1.0  0.5196415412863106  0.42190013027184525  0.5669258289125412  1.0000
  C   C3        1.0  0.48315702466212745  0.35739189492263845  0.6703622845680839  1.0000
  C   C4        1.0  0.4104862695504825  0.3572809743244958  0.6704488671860342  1.0000
  C   C5        1.0  0.3733093063745234  0.4219002229286106  0.5669256011943109  1.0000
  C   C6        1.0  0.4105080215544685  0.4865196584566638  0.4634025296813584  1.0000
  C   C7        1.0  0.4831787029994212  0.48640850229869037  0.4634892348844608  1.0000
  C   C8        1.0  0.2961042159497874  0.4219001442988344  0.566925505804512  1.0000
  C   C9        1.0  0.2589151396132673  0.30861676701839347  0.6088364243825788  1.0000
  C   C10       1.0  0.1862444589882434  0.3087237081675216  0.6087450600782973  1.0000
  C   C11       1.0  0.14977192902347816  0.4219000150952097  0.5669255667608668  1.0000
  C   C12       1.0  0.0749538918410788  0.4218999012514639  0.5669258154657495  1.0000
  N   N2        1.0  0.0148055749640315  0.4218998603465993  0.5669260239030676  1.0000
  C   C13       1.0  0.18624690991932338  0.5350763978750508  0.5251060205253293  1.0000
  C   C14       1.0  0.2589176139104922  0.535183519217403  0.5250144935608385  1.0000
  H   H1        1.0  0.51086344108966  0.30744795958489624  0.751122383700416  1.0000
  H   H2        1.0  0.38338434348964423  0.30813474920821293  0.7523242154713929  1.0000
  H   H3        1.0  0.3834234168326557  0.5356659106462398  0.38152713053723697  1.0000
  H   H4        1.0  0.5109020580036061  0.5363523372635288  0.382729411587424  1.0000
  H   H5        1.0  0.2860076437321933  0.2194442641457468  0.6400356281367459  1.0000
  H   H6        1.0  0.15852868303957907  0.2204500477662188  0.6409769362601503  1.0000
  H   H7        1.0  0.1585328624192291  0.6233500337325253  0.4928741589027128  1.0000
  H   H8        1.0  0.2860115886116258  0.6243561012883392  0.4938152450067752  1.0000
  C   C15       1.0  0.8347176630866736  0.04050794431314131  0.567080087397948  1.0000
  C   C16       1.0  0.8768350021578721  0.030578442837601916  0.6788271340808067  1.0000
  C   C17       1.0  0.897426180265244  0.9083307188584538  0.7360402955055376  1.0000
  C   C18       1.0  0.8767504388151093  0.7953564714573648  0.6785508481593259  1.0000
  C   C19       1.0  0.8347025360654374  0.8032818805141244  0.5667831760505642  1.0000
  C   C20       1.0  0.8137790673214652  0.9263313296972246  0.5118932382823469  1.0000
  C   C21       1.0  0.9425026624486903  0.8977630257582421  0.853239274542142  1.0000
  O   O1        1.0  0.9865941389538906  0.8069720658552715  0.8655956227665422  1.0000
  C   C22       1.0  0.9375563147823383  0.990090970815046  0.9564253538492942  1.0000
  C   C23       1.0  0.9969973812652952  0.019529538951255088  0.02798890752382477  1.0000
  C   C24       1.0  0.9926801873730812  0.10525309639210079  0.12648243505804668  1.0000
  C   C25       1.0  0.929010105033218  0.1615361988495907  0.15524104046784903  1.0000
  C   C26       1.0  0.8694622013350991  0.1317879416249217  0.08592161431851886  1.0000
  C   C27       1.0  0.8735003015063538  0.04614406914406888  0.9873404187819477  1.0000
  H   H9        1.0  0.7561168920033959  0.2666562815026261  0.35504599291086536  1.0000
  H   H10       1.0  0.8943127264410029  0.11815110720838007  0.7206646609893121  1.0000
  H   H11       1.0  0.8930152527612615  0.7010391685097186  0.7219885954505987  1.0000
  H   H12       1.0  0.7813101001669667  0.9331821344165221  0.4257440818387397  1.0000
  H   H13       1.0  0.819033437735932  0.4789191813345554  0.5232150402881877  1.0000
  H   H14       1.0  0.046860050227161665  0.9770920850588484  0.006941301904858754  1.0000
  H   H15       1.0  0.03874519340039084  0.12800346834092902  0.18057917015345293  1.0000
  H   H16       1.0  0.9257631144465619  0.2277786869046834  0.23158300267514664  1.0000
  H   H17       1.0  0.8200465086730574  0.1746634086606602  0.10896907057593364  1.0000
  H   H18       1.0  0.8264750524492785  0.022707649633159965  0.9364034692568595  1.0000
  C   C28       1.0  0.8347579384585637  0.4220354431295146  0.18555559913623942  1.0000
  C   C29       1.0  0.9057061775664201  0.4544118964230257  0.18172899980699397  1.0000
  C   C30       1.0  0.9416511232126037  0.46883781161282  0.06311871383997203  1.0000
  C   C31       1.0  0.9055845667558449  0.4541018050347274  0.9465858239573288  1.0000
  C   C32       1.0  0.8346622767751432  0.4217543577314793  0.9483076648887794  1.0000
  C   C33       1.0  0.7997087289456942  0.4054592424865471  0.06836104166404477  1.0000
  N   N3        1.0  0.014025183785915996  0.5039254323910596  0.06262146787375977  1.0000
  C   C34       1.0  0.06321591732999132  0.46407305748211614  0.9684239684789482  1.0000
  O   O2        1.0  0.05054133160083474  0.3655090845488129  0.9069108186178267  1.0000
  C   C35       1.0  0.12994448415167925  0.5344058711303155  0.9460461445414041  1.0000
  C   C36       1.0  0.13832687306751423  0.6624836124959723  0.9823501027541885  1.0000
  C   C37       1.0  0.2013778826120438  0.7280429771554495  0.9601339817815799  1.0000
  C   C38       1.0  0.2565517838940754  0.6670123825995118  0.9011828941378233  1.0000
  C   C39       1.0  0.24873334153760096  0.5403811090139274  0.8638724048853703  1.0000
  C   C40       1.0  0.18580084448090006  0.474364685462457  0.885759624275352  1.0000
  H   H19       1.0  0.7007656252434058  0.3621688363708584  0.3999437874899654  1.0000
  H   H20       1.0  0.933552404152103  0.4676318380308333  0.27114422488165757  1.0000
  H   H21       1.0  0.9325040284500518  0.4700666581047659  0.8544664045258976  1.0000
  H   H22       1.0  0.745017830621942  0.38048369334868326  0.07044681287347765  1.0000
  H   H23       1.0  0.8072320570933034  0.41102669520148094  0.6213882715307104  1.0000
  H   H24       1.0  0.03299248591523085  0.5511320175211853  0.14152568103645424  1.0000
  H   H25       1.0  0.09609514886944415  0.7130218028293762  0.026104290672803954  1.0000
  H   H26       1.0  0.20735485850965518  0.8265282941098626  0.9882115009789127  1.0000
  H   H27       1.0  0.3052845472762289  0.7179934965750117  0.8840455266063754  1.0000
  H   H28       1.0  0.2914787354708117  0.4932604293465439  0.8179199059424134  1.0000
  H   H29       1.0  0.18101482248654732  0.3761020024727546  0.8563069808305968  1.0000
  Zn  Zn1       1.0  0.7585532101937654  0.4218964389529878  0.5669335311242227  1.0000
  Zn  Zn2       1.0  0.9108603296460688  0.421892752277756  0.566929144229001  1.0000
  C   C41       1.0  0.8346788931562128  0.41663350966291257  0.8041332122505216  1.0000
  C   C42       1.0  0.8347363098241315  0.4271573201991816  0.3297295898857737  1.0000
  C   C43       1.0  0.8347024633596337  0.6591032694382366  0.5616640373620962  1.0000
  C   C44       1.0  0.8347126876712053  0.18468600000275592  0.5721988346229889  1.0000
  O   O3        1.0  0.8925288092461627  0.4288692037749364  0.3781140356285835  1.0000
  O   O4        1.0  0.8924839733179618  0.4149178483420315  0.7557450634840985  1.0000
  O   O5        1.0  0.8925022272175246  0.6107152453304832  0.5599494887488528  1.0000
  O   O6        1.0  0.8925105033865285  0.2330718161144092  0.573909512985223  1.0000
  O   O7        1.0  0.7769029844783619  0.6107173751190094  0.5599531623626663  1.0000
  O   O8        1.0  0.7768847305533605  0.41492153855433345  0.7557486672437874  1.0000
  O   O9        1.0  0.7769295667245564  0.4288728493039178  0.3781160779760415  1.0000
  O   O10       1.0  0.7769112608500495  0.23307545231814064  0.5739116527059527  1.0000
