data_image0
_chemical_formula_structural       NC8NC6H8C7OC3FC3H9C7OC3OC4H12Zn2C4O8
_chemical_formula_sum              "N2 C45 H29 O11 F1 Zn2"
_cell_length_a       17.457602349358154
_cell_length_b       10.29937835083307
_cell_length_c       10.299374482448636
_cell_angle_alpha    85.53885586126866
_cell_angle_beta     92.85818479457473
_cell_angle_gamma    91.70902404556999

_space_group_name_H-M_alt    "P 1"
_space_group_IT_number       1

loop_
  _space_group_symop_operation_xyz
  'x, y, z'

loop_
  _atom_site_type_symbol
  _atom_site_label
  _atom_site_symmetry_multiplicity
  _atom_site_fract_x
  _atom_site_fract_y
  _atom_site_fract_z
  _atom_site_occupancy
  N   N1        1.0  0.7229890539804257  0.45322758059124824  0.6262789112741454  1.0000
  C   C1        1.0  0.6619033612276788  0.407302824662239  0.6156691960989753  1.0000
  C   C2        1.0  0.5859101758433923  0.35017814063881714  0.602480251810549  1.0000
  C   C3        1.0  0.5273761035782393  0.39032386481949133  0.6773740901667427  1.0000
  C   C4        1.0  0.45282133559617477  0.3353173923605832  0.6647993094626907  1.0000
  C   C5        1.0  0.3906960185004446  0.3777053072386001  0.7441147421220293  1.0000
  C   C6        1.0  0.3161636644725263  0.3961879141640108  0.6883475215605215  1.0000
  C   C7        1.0  0.2576295302424088  0.43614967864895804  0.7633493409085106  1.0000
  C   C8        1.0  0.1816595622929721  0.45523869719022425  0.705366529323088  1.0000
  N   N2        1.0  0.12059262318796632  0.47057988807460993  0.6587485007260003  1.0000
  C   C9        1.0  0.2731355441147413  0.4578718668236612  0.8946268763555199  1.0000
  C   C10       1.0  0.3468832043738437  0.4397781713225335  0.9507816505543989  1.0000
  C   C11       1.0  0.4054056865522629  0.3999963596045675  0.8762375379293956  1.0000
  C   C12       1.0  0.4380894091427431  0.23948808903420926  0.5758978318275145  1.0000
  C   C13       1.0  0.496611747800384  0.19962096160643483  0.50140396756054  1.0000
  C   C14       1.0  0.5703816714503743  0.2547396829374011  0.5145286946564893  1.0000
  H   H1        1.0  0.539723669562402  0.46550563997876737  0.7439960246196056  1.0000
  H   H2        1.0  0.3038345048304645  0.3812414168234901  0.586322875198868  1.0000
  H   H3        1.0  0.2282701547735667  0.48874193432280744  0.9534597861738845  1.0000
  H   H4        1.0  0.3586990528616553  0.4562824893051749  0.05243281676732747  1.0000
  H   H5        1.0  0.46187952831976736  0.3849928153983928  0.9223470207628504  1.0000
  H   H6        1.0  0.3815971261849028  0.1941530366843649  0.5652519188914569  1.0000
  H   H7        1.0  0.4847784517056481  0.12555598599005258  0.4335835344007679  1.0000
  H   H8        1.0  0.6152468250160041  0.22299975545931594  0.4562070389421733  1.0000
  C   C15       1.0  0.9217136291711314  0.08051536438748075  0.6425714190316147  1.0000
  C   C16       1.0  0.8416702316814872  0.07703364712706606  0.6200094608221935  1.0000
  C   C17       1.0  0.801200868941949  0.9579851309174776  0.6100992589831484  1.0000
  C   C18       1.0  0.8418578253600498  0.8417978295321551  0.620031655820575  1.0000
  C   C19       1.0  0.9218753607262987  0.8432824242194239  0.6424678287047687  1.0000
  C   C20       1.0  0.9613165396574022  0.9631399254676777  0.6539478970868668  1.0000
  C   C21       1.0  0.7167756231646053  0.9542755357870643  0.5849099031490235  1.0000
  O   O1        1.0  0.6871545641588043  0.868308614084356  0.5158275752747901  1.0000
  C   C22       1.0  0.6659537007985029  0.04799116508014234  0.638100580876686  1.0000
  C   C23       1.0  0.5976242376346086  0.08502278015956599  0.5687374554697486  1.0000
  C   C24       1.0  0.548878981028363  0.17213915023560777  0.6188195846175215  1.0000
  F   F1        1.0  0.4834298559883168  0.20798828529961333  0.550753074936859  1.0000
  C   C25       1.0  0.5675299801333615  0.22222101616799383  0.7389519869972703  1.0000
  C   C26       1.0  0.6347578031308353  0.18488867948104692  0.8094397551461117  1.0000
  C   C27       1.0  0.6836616208649272  0.09785073877642159  0.7597753011913118  1.0000
  H   H9        1.0  0.07289925500104366  0.294566824845683  0.6831633050334998  1.0000
  H   H10       1.0  0.8108027004013871  0.16720010128393326  0.6086752699261591  1.0000
  H   H11       1.0  0.810800256620918  0.7499752960177285  0.6114428694364467  1.0000
  H   H12       1.0  0.02302405091051507  0.9650200675912133  0.6713407480868923  1.0000
  H   H13       1.0  0.9526868535508914  0.5164843357277107  0.6499965904619591  1.0000
  H   H14       1.0  0.5823557291763951  0.047377010927636576  0.4753289233943516  1.0000
  H   H15       1.0  0.5297747553525586  0.2895511185011208  0.7777492443543628  1.0000
  H   H16       1.0  0.6488401908281256  0.22296979501597347  0.9029650026646532  1.0000
  H   H17       1.0  0.7347810806353247  0.06850685644373056  0.8171039397260473  1.0000
  C   C28       1.0  0.9218655925117956  0.461989477893026  0.2611428774538691  1.0000
  C   C29       1.0  0.002005461860391078  0.4801518785544061  0.2653137379860784  1.0000
  C   C30       1.0  0.04232919334219343  0.49077972270153936  0.15012150284201997  1.0000
  C   C31       1.0  0.0018220654335316944  0.48008000134056394  0.030059920274169816  1.0000
  C   C32       1.0  0.9217234017460031  0.461808272141611  0.02389631990734964  1.0000
  C   C33       1.0  0.882186997294073  0.4532088343741021  0.13998002013211996  1.0000
  C   C34       1.0  0.12704111281316344  0.5086033088290862  0.15449817499422447  1.0000
  O   O2        1.0  0.16466935984973508  0.45670127207225897  0.07173208708763168  1.0000
  C   C35       1.0  0.16906243899314566  0.5853216411136593  0.25268612749010155  1.0000
  C   C36       1.0  0.24390583854735648  0.5518686332997891  0.2969679856937666  1.0000
  C   C37       1.0  0.2849001564510727  0.6239246282070061  0.38850829227518857  1.0000
  O   O3        1.0  0.35911935303014  0.5852698122348556  0.4298689238467506  1.0000
  C   C38       1.0  0.40720105049393207  0.6492414086493052  0.5221782818407925  1.0000
  C   C39       1.0  0.25062721907183305  0.7318199381518984  0.4356073578162818  1.0000
  C   C40       1.0  0.17667985047511459  0.7666453177547594  0.3908879139483401  1.0000
  C   C41       1.0  0.1361282892218345  0.6943756270253714  0.2996248325346924  1.0000
  H   H18       1.0  0.7707625270854253  0.42573289015385507  0.4607588566581047  1.0000
  H   H19       1.0  0.03325299861089115  0.4846076988990067  0.35845631935691213  1.0000
  H   H20       1.0  0.032893208617345904  0.4872918299978828  0.9412027809767678  1.0000
  H   H21       1.0  0.8204050129612234  0.43920609896043805  0.13596087606568785  1.0000
  H   H22       1.0  0.8910251864378642  0.4537086979400182  0.6941616604030694  1.0000
  H   H23       1.0  0.2704944322975549  0.46871350946367807  0.2612736980391288  1.0000
  H   H24       1.0  0.46241447615527487  0.5982916788020913  0.5366540451782602  1.0000
  H   H25       1.0  0.37949694961003777  0.6462313318099353  0.6171508563667993  1.0000
  H   H26       1.0  0.41901766415674446  0.7517669853548108  0.48546610276216184  1.0000
  H   H27       1.0  0.2807034527402419  0.7895725419584005  0.506245788197585  1.0000
  H   H28       1.0  0.15081189294470132  0.850320961231011  0.4266699072069593  1.0000
  H   H29       1.0  0.07940254871574037  0.7246280957790607  0.2647632444576873  1.0000
  Zn  Zn1       1.0  0.8377288532398606  0.45823159703774863  0.6356564325037048  1.0000
  Zn  Zn2       1.0  0.005852805438612441  0.46556522073532736  0.6493816136883854  1.0000
  C   C42       1.0  0.9217474773554397  0.456668515094089  0.8797201864005431  1.0000
  C   C43       1.0  0.9218360175550928  0.46713002143542126  0.4053181369166068  1.0000
  C   C44       1.0  0.9218418176006885  0.6991042494689514  0.6373118052750351  1.0000
  C   C45       1.0  0.9217416195971015  0.22469272415891295  0.647726582810644  1.0000
  O   O4        1.0  0.9856282544020455  0.47163264074891353  0.4589133065492954  1.0000
  O   O5        1.0  0.9855574299658161  0.4577309667945282  0.8365417379873104  1.0000
  O   O6        1.0  0.9856327505715434  0.653500850482623  0.640795184749636  1.0000
  O   O7        1.0  0.9855528764471231  0.2758627638721811  0.654659757725566  1.0000
  O   O8        1.0  0.8580287248588978  0.6479340513997041  0.630378283775962  1.0000
  O   O9        1.0  0.8579534045934608  0.45216572811206435  0.8261247675545447  1.0000
  O   O10       1.0  0.8580242293621768  0.4660673571813052  0.4484947746941017  1.0000
  O   O11       1.0  0.8579488513839972  0.27029747099202006  0.6442413232412136  1.0000
