data_image0
_chemical_formula_structural       NC9NC5H8C7OC3NC3H11C7OC3OC4H12Zn2C4O8
_chemical_formula_sum              "N3 C45 H31 O11 Zn2"
_cell_length_a       17.807436237873137
_cell_length_b       10.298746005989749
_cell_length_c       10.299374482448636
_cell_angle_alpha    85.55101224981432
_cell_angle_beta     89.37372472773512
_cell_angle_gamma    88.3993582553778

_space_group_name_H-M_alt    "P 1"
_space_group_IT_number       1

loop_
  _space_group_symop_operation_xyz
  'x, y, z'

loop_
  _atom_site_type_symbol
  _atom_site_label
  _atom_site_symmetry_multiplicity
  _atom_site_fract_x
  _atom_site_fract_y
  _atom_site_fract_z
  _atom_site_occupancy
  N   N1        1.0  0.7078058304392112  0.3881953735550896  0.5571538979699613  1.0000
  C   C1        1.0  0.6472170140637532  0.3530053063740295  0.5461274717196571  1.0000
  C   C2        1.0  0.5718511857701091  0.30923273813758434  0.5324117947041076  1.0000
  C   C3        1.0  0.5537722927947004  0.237835757651778  0.4274005752573906  1.0000
  C   C4        1.0  0.4805959670963448  0.1952244805390233  0.41400089864475476  1.0000
  C   C5        1.0  0.4244497863529104  0.22363263110622977  0.505579966326847  1.0000
  C   C6        1.0  0.3466822114329434  0.17846272516575756  0.49142166460511816  1.0000
  C   C7        1.0  0.2845087879980097  0.2602196097507785  0.5173664183012987  1.0000
  C   C8        1.0  0.2111901358623076  0.21740527502392282  0.5039804114060431  1.0000
  C   C9        1.0  0.147966808859241  0.3018536465636834  0.5302892408228461  1.0000
  N   N2        1.0  0.097148241825926  0.3697442945578169  0.5514408128138433  1.0000
  C   C10       1.0  0.1994613427191483  0.09257606065964552  0.4646242848757103  1.0000
  C   C11       1.0  0.2607773965671825  0.010805324563679664  0.4386711403329764  1.0000
  C   C12       1.0  0.3339766167420743  0.053225132365184  0.45185457757273517  1.0000
  C   C13       1.0  0.4432200900968473  0.2955239681384274  0.6108104532185143  1.0000
  C   C14       1.0  0.516449297756038  0.33794487082492153  0.6240544616726766  1.0000
  H   H1        1.0  0.5961782351374695  0.2153650051736946  0.3556836428715162  1.0000
  H   H2        1.0  0.4676935590096468  0.14155670485781213  0.3310739851421365  1.0000
  H   H3        1.0  0.2930101185296563  0.35768579815660484  0.5462503260600688  1.0000
  H   H4        1.0  0.1429950615638708  0.05853967302608587  0.4540269829668535  1.0000
  H   H5        1.0  0.251578018232201  0.914159574400391  0.40858682166035987  1.0000
  H   H6        1.0  0.3806147640667578  0.9874791234881231  0.4328015610465077  1.0000
  H   H7        1.0  0.4015307403770821  0.3174553338464312  0.6838219038610551  1.0000
  H   H8        1.0  0.5298803607758392  0.39283356715957596  0.7059397786004384  1.0000
  C   C15       1.0  0.9024447273259445  0.9975693019403473  0.5542806810807483  1.0000
  C   C16       1.0  0.9376107517219557  0.004438937386260999  0.4312570244851326  1.0000
  C   C17       1.0  0.9546025294409095  0.8908267868777339  0.3683728838675857  1.0000
  C   C18       1.0  0.9376113239605115  0.7692023218329576  0.4312078776335062  1.0000
  C   C19       1.0  0.9025165063130601  0.7603600814630667  0.5543251836928718  1.0000
  C   C20       1.0  0.884975088793399  0.8751075435561655  0.6149285443731995  1.0000
  C   C21       1.0  0.9923759731938513  0.8978591658861406  0.23899953027787268  1.0000
  O   O1        1.0  0.03825044605310968  0.807713356609225  0.21311343735876775  1.0000
  C   C22       1.0  0.9781093129570718  0.007097430224203283  0.13900041137890984  1.0000
  C   C23       1.0  0.9069748588802807  0.0698635636485132  0.1279364256202713  1.0000
  C   C24       1.0  0.893827903916866  0.17218108476260263  0.03221989366960987  1.0000
  N   N3        1.0  0.8214906784669803  0.2358461916504393  0.022076957951997045  1.0000
  C   C25       1.0  0.9518621148924892  0.21133815336115802  0.9462318174364026  1.0000
  C   C26       1.0  0.02231115780945947  0.14844019126266628  0.9554497382166773  1.0000
  C   C27       1.0  0.0353997326167943  0.04654998525165488  0.05086291055055825  1.0000
  H   H9        1.0  0.837039917013314  0.1918346733623293  0.787582363625378  1.0000
  H   H10       1.0  0.9525589910057125  0.0982586306256541  0.38481461835665876  1.0000
  H   H11       1.0  0.9511691473117082  0.6813798910396022  0.3833097513392776  1.0000
  H   H12       1.0  0.8578721360739852  0.8690600423281584  0.7097593460824942  1.0000
  H   H13       1.0  0.8364874679425154  0.5363211779730114  0.7871474868118733  1.0000
  H   H14       1.0  0.8614678929416137  0.03860042429517896  0.19256853902789528  1.0000
  H   H15       1.0  0.7778292170741541  0.2074458860692059  0.08567050200809478  1.0000
  H   H16       1.0  0.811081612408125  0.311972249264701  0.9509893634785467  1.0000
  H   H17       1.0  0.9424080486726015  0.29015593967232145  0.8718813781091432  1.0000
  H   H18       1.0  0.06689807032230166  0.17871189529412845  0.8884987519271417  1.0000
  H   H19       1.0  0.09049704417049709  0.9992953806821975  0.05658216767075852  1.0000
  C   C28       1.0  0.9025502253822912  0.3790488805093526  0.17291938713923272  1.0000
  C   C29       1.0  0.9810233329823217  0.3899955985100818  0.1693974088528376  1.0000
  C   C30       1.0  0.020508236023591753  0.3969928245659977  0.05033471115062804  1.0000
  C   C31       1.0  0.9808437543049862  0.3899402325344128  0.934161189347325  1.0000
  C   C32       1.0  0.9024110088363726  0.37888046993866076  0.9356864468991715  1.0000
  C   C33       1.0  0.8636968478455035  0.3738408532942983  0.05556542896766592  1.0000
  C   C34       1.0  0.10345845962319622  0.407188997960068  0.046579366259949406  1.0000
  O   O2        1.0  0.1403109689773132  0.35189593256251217  0.9601882782509605  1.0000
  C   C35       1.0  0.14459819096424953  0.4801271614005582  0.14074799624933676  1.0000
  C   C36       1.0  0.21789070919583353  0.43993282696777003  0.1778346216632518  1.0000
  C   C37       1.0  0.2580252950312176  0.5083009010737456  0.26545324065569  1.0000
  O   O3        1.0  0.33070716705953074  0.4629607068319066  0.29967747267995626  1.0000
  C   C38       1.0  0.37778282818278663  0.5226057581678452  0.387382727651876  1.0000
  C   C39       1.0  0.22445204050275613  0.6192879048288007  0.31586707100736855  1.0000
  C   C40       1.0  0.15203678468393478  0.6607739923631462  0.27825709840341184  1.0000
  C   C41       1.0  0.11233578262855093  0.5921523414761649  0.19087313581762988  1.0000
  H   H20       1.0  0.7545900539112834  0.35639730218523025  0.38703971919199476  1.0000
  H   H21       1.0  0.011621276614351306  0.39163780217726774  0.2595398928405366  1.0000
  H   H22       1.0  0.011268655604478095  0.39435446710011623  0.8423214850110279  1.0000
  H   H23       1.0  0.8031998151455925  0.365400881999038  0.05747690141696338  1.0000
  H   H24       1.0  0.8723513895800664  0.3735448631141063  0.6088983455051209  1.0000
  H   H25       1.0  0.24393643383507713  0.35437922629942964  0.13956889119634908  1.0000
  H   H26       1.0  0.4318551211653765  0.46668150233593764  0.39654479217842753  1.0000
  H   H27       1.0  0.3506545505112384  0.5220902842176789  0.4850153936272832  1.0000
  H   H28       1.0  0.3893423423761342  0.6240723955506524  0.3495576619903502  1.0000
  H   H29       1.0  0.2538969610961319  0.6743350431971133  0.3836293318721007  1.0000
  H   H30       1.0  0.12669666780505762  0.7467832455169112  0.3165414353247509  1.0000
  H   H31       1.0  0.05678493900809434  0.6275144811824447  0.1614660507600607  1.0000
  Zn  Zn1       1.0  0.8201616372165427  0.3828673234915574  0.5555127358817107  1.0000
  Zn  Zn2       1.0  0.984792413906438  0.37506175521693663  0.5530926513059655  1.0000
  C   C42       1.0  0.9024351678519191  0.3737382868755814  0.7915068984440294  1.0000
  C   C43       1.0  0.9025206811649911  0.38419234532294766  0.31709858988338  1.0000
  C   C44       1.0  0.9025000247681398  0.6161776957796026  0.5491414695164281  1.0000
  C   C45       1.0  0.9024557679122973  0.14175137863585774  0.5594640887870077  1.0000
  O   O4        1.0  0.9649872870958146  0.3829507004106232  0.3645680376027982  1.0000
  O   O5        1.0  0.9649195121078726  0.36905470635525095  0.7422002886110008  1.0000
  O   O6        1.0  0.9649710424280946  0.5648276347434071  0.5464885024359343  1.0000
  O   O7        1.0  0.9649357006169065  0.18717778399846563  0.5602797272258127  1.0000
  O   O8        1.0  0.8400182943256712  0.5707512973751012  0.5483256607808884  1.0000
  O   O9        1.0  0.8399667641615194  0.3749799294350864  0.7440373777989531  1.0000
  O   O10       1.0  0.8400345394801372  0.3888758785731201  0.3664035653267603  1.0000
  O   O11       1.0  0.8399829529795123  0.19310295285003654  0.5621153523208522  1.0000
