data_image0
_chemical_formula_structural       NC10NC5H10C7OC4NC3H9C6SCOC6H10Zn2C4O8
_chemical_formula_sum              "N3 C46 H29 O10 S1 Zn2"
_cell_length_a       19.4436361288709
_cell_length_b       10.299371701877257
_cell_length_c       10.302041481415108
_cell_angle_alpha    85.56120269447774
_cell_angle_beta     89.70072369043199
_cell_angle_gamma    89.42830201241743

_space_group_name_H-M_alt    "P 1"
_space_group_IT_number       1

loop_
  _space_group_symop_operation_xyz
  'x, y, z'

loop_
  _atom_site_type_symbol
  _atom_site_label
  _atom_site_symmetry_multiplicity
  _atom_site_fract_x
  _atom_site_fract_y
  _atom_site_fract_z
  _atom_site_occupancy
  N   N1        1.0  0.6478247804056008  0.40980915820314867  0.5629283492512547  1.0000
  C   C1        1.0  0.5889901176777254  0.41970347410508335  0.5773129826812957  1.0000
  C   C2        1.0  0.5156624222863161  0.4320429842365934  0.5953061098394599  1.0000
  C   C3        1.0  0.4734733234202573  0.4000959080188984  0.5006404879689279  1.0000
  C   C4        1.0  0.3975697259405066  0.4105313691846426  0.505971352100244  1.0000
  C   C5        1.0  0.3578307533589705  0.3857272637444442  0.613011732820945  1.0000
  C   C6        1.0  0.2817102533368434  0.38965068326368524  0.6000565789271262  1.0000
  C   C7        1.0  0.2411547237200668  0.44726256620997806  0.6938289770504076  1.0000
  C   C8        1.0  0.16949140554914402  0.45090585146441287  0.6832886833775218  1.0000
  C   C9        1.0  0.1373888323927225  0.3965410928193793  0.5792623086046873  1.0000
  C   C10       1.0  0.06359627142363951  0.4002457027864499  0.5685667889347676  1.0000
  N   N2        1.0  0.0042720574720682  0.4032240147279025  0.5599683002397375  1.0000
  C   C11       1.0  0.1772194163627732  0.33822191983904415  0.4858727984098583  1.0000
  C   C12       1.0  0.24889915287220074  0.3345245431070132  0.49616134780333154  1.0000
  C   C13       1.0  0.3859629387964789  0.3451976883982435  0.7440633036186124  1.0000
  C   C14       1.0  0.4446314836979483  0.3882945989551829  0.7913119571616649  1.0000
  C   C15       1.0  0.4888459856321394  0.4861916062593956  0.716997092200653  1.0000
  H   H1        1.0  0.4955676663335158  0.37102638310270675  0.41034192712720463  1.0000
  H   H2        1.0  0.37287119666091023  0.4330749502820892  0.4128412517374813  1.0000
  H   H3        1.0  0.265030902926716  0.49051081026095633  0.7746763812051942  1.0000
  H   H4        1.0  0.1391523195990502  0.49618198449888085  0.7562110672374389  1.0000
  H   H5        1.0  0.152871379808502  0.2951691567945989  0.40535987962725084  1.0000
  H   H6        1.0  0.2785724368312125  0.2870046614615731  0.4239343061804586  1.0000
  H   H7        1.0  0.3549931620265964  0.2809470312126561  0.8082724329333415  1.0000
  H   H8        1.0  0.4597805831198756  0.354175974684358  0.8892127807697963  1.0000
  H   H9        1.0  0.4587445602200827  0.5769188678430517  0.6917846291637495  1.0000
  H   H10       1.0  0.5321348113904733  0.5117443437728475  0.7800782753855042  1.0000
  C   C16       1.0  0.8260157369135938  0.025146803896691106  0.5613216553155065  1.0000
  C   C17       1.0  0.8293622271762099  0.03447328268926775  0.4246612254265365  1.0000
  C   C18       1.0  0.8302691347566273  0.9220228373324634  0.35567759432040624  1.0000
  C   C19       1.0  0.8293707242818685  0.7992046998474716  0.4249784758316255  1.0000
  C   C20       1.0  0.8260876787546751  0.7878762407880641  0.5615862073586779  1.0000
  C   C21       1.0  0.8242482228223803  0.9014521676932677  0.6289530617278867  1.0000
  C   C22       1.0  0.8345251269272296  0.931713832882336  0.2114263082470793  1.0000
  O   O1        1.0  0.867630047799404  0.8453744810467292  0.1562184981408108  1.0000
  C   C23       1.0  0.8012140707360693  0.03927092790459996  0.12981007616310425  1.0000
  C   C24       1.0  0.8306750360732121  0.0834125646778574  0.009623469290983122  1.0000
  C   C25       1.0  0.7991778316272855  0.18392500704430303  0.9311128416877428  1.0000
  C   C26       1.0  0.8299731834463361  0.22922680143223073  0.8087295206326246  1.0000
  N   N3        1.0  0.8547312747366904  0.26563983386084145  0.7103510520486722  1.0000
  C   C27       1.0  0.7377062031670127  0.24022514931922312  0.9717856735559094  1.0000
  C   C28       1.0  0.7076646923647626  0.19588421438709536  0.09023796209243118  1.0000
  C   C29       1.0  0.7389644188874306  0.09567289869024331  0.16873883466576278  1.0000
  H   H11       1.0  0.8207582013718343  0.2148420651720102  0.8192924364360483  1.0000
  H   H12       1.0  0.8320377011103037  0.12936593498279825  0.37176486480141424  1.0000
  H   H13       1.0  0.8305796385615781  0.7123632330160915  0.3719686871203436  1.0000
  H   H14       1.0  0.8216686996523209  0.8934582353308331  0.7343085092263786  1.0000
  H   H15       1.0  0.8254053749633566  0.4560532394441934  0.6141047475425254  1.0000
  H   H16       1.0  0.8783737073166238  0.040451168521643766  0.9776579328858044  1.0000
  H   H17       1.0  0.712913963412033  0.31792029859670756  0.9117662802308399  1.0000
  H   H18       1.0  0.6598486205295201  0.2388643647413382  0.12105173934673186  1.0000
  H   H19       1.0  0.7141130070956679  0.06139084970354047  0.2590802615129437  1.0000
  C   C30       1.0  0.8260646143628793  0.406640563537759  0.1801668412622428  1.0000
  C   C31       1.0  0.8576075226470766  0.5291565290640399  0.1690347240371355  1.0000
  C   C32       1.0  0.8736081828612786  0.5895871738968186  0.04653765126978837  1.0000
  C   C33       1.0  0.8576727609416505  0.5287514603495147  0.9339286299572369  1.0000
  C   C34       1.0  0.8260388200458686  0.40638248063305027  0.9427410564863945  1.0000
  C   C35       1.0  0.8104492427534515  0.34590568576913494  0.0664281286782078  1.0000
  S   S1        1.0  0.9145174469042197  0.74536466508788  0.03372981719580315  1.0000
  C   C36       1.0  0.9992362580280124  0.673998672541887  0.035570443822904085  1.0000
  O   O2        1.0  0.026150897279539898  0.6503286319984884  0.9282786186318095  1.0000
  C   C37       1.0  0.03714347811553931  0.6419556033392804  0.15876926828017246  1.0000
  C   C38       1.0  0.0981507999932727  0.5671049903645751  0.15842929619498647  1.0000
  C   C39       1.0  0.13399568326518962  0.5355459587004974  0.274072967254521  1.0000
  C   C40       1.0  0.10956328078795963  0.5783449545970079  0.39122815164845925  1.0000
  C   C41       1.0  0.04929516663868028  0.6530230999931035  0.39294219680857334  1.0000
  C   C42       1.0  0.013245026323102982  0.6849600591946361  0.2775997662882219  1.0000
  H   H20       1.0  0.7665086870917949  0.17583441055087246  0.4084581936970817  1.0000
  H   H21       1.0  0.8699676675453054  0.5778560750259247  0.2552634264763276  1.0000
  H   H22       1.0  0.8703243987432452  0.5771140901060385  0.8398690963883562  1.0000
  H   H23       1.0  0.7861335054078927  0.2514543599480712  0.07408962952986142  1.0000
  H   H24       1.0  0.8141993857045232  0.359684460584931  0.61876379810972  1.0000
  H   H25       1.0  0.11801491133366615  0.5322800315030809  0.06893370996471848  1.0000
  H   H26       1.0  0.18074313794441732  0.477697717410001  0.27281794151942007  1.0000
  H   H27       1.0  0.13737345282067537  0.5537799469560136  0.48065091889255473  1.0000
  H   H28       1.0  0.030498917629645295  0.6864412896508214  0.48378247118894  1.0000
  H   H29       1.0  0.9670196097233851  0.7437407152819702  0.28207804293703376  1.0000
  Zn  Zn1       1.0  0.7506877655672843  0.40790535412469353  0.5620816523705607  1.0000
  Zn  Zn2       1.0  0.9014090624635314  0.4051172074870455  0.5608256723292837  1.0000
  C   C43       1.0  0.8260416554178658  0.401257618987094  0.7985963942893513  1.0000
  C   C44       1.0  0.8260568186350642  0.4117665507580852  0.32431104470269845  1.0000
  C   C45       1.0  0.8260707134172618  0.6437059737150956  0.5563621730715067  1.0000
  C   C46       1.0  0.8260277090555146  0.169316636652185  0.5665453350316958  1.0000
  O   O3        1.0  0.8832521484646928  0.41242312602388465  0.37221051630560953  1.0000
  O   O4        1.0  0.8832403023993193  0.3984839253385579  0.7497432887908608  1.0000
  O   O5        1.0  0.8832629959999357  0.5942640517659872  0.5541374482039261  1.0000
  O   O6        1.0  0.8832294034372792  0.21664300987104834  0.5678162599705718  1.0000
  O   O7        1.0  0.7688673731597553  0.5963795526935645  0.5550910651510479  1.0000
  O   O8        1.0  0.7688446797055111  0.400600986596908  0.7506968370486047  1.0000
  O   O9        1.0  0.7688565258652066  0.4145401425536077  0.37316250348158664  1.0000
  O   O10       1.0  0.7688337808308089  0.21876001707905224  0.5687683444902967  1.0000
