data_image0
_chemical_formula_structural       NC12NC2H8C7OC4NC3H9C7OC4NC3H9Zn2C4O8
_chemical_formula_sum              "N4 C46 H26 O10 Zn2"
_cell_length_a       17.80743265337812
_cell_length_b       10.299371701877257
_cell_length_c       10.299375074045738
_cell_angle_alpha    85.5592431839292
_cell_angle_beta     91.52722468557046
_cell_angle_gamma    89.44495547056904

_space_group_name_H-M_alt    "P 1"
_space_group_IT_number       1

loop_
  _space_group_symop_operation_xyz
  'x, y, z'

loop_
  _atom_site_type_symbol
  _atom_site_label
  _atom_site_symmetry_multiplicity
  _atom_site_fract_x
  _atom_site_fract_y
  _atom_site_fract_z
  _atom_site_occupancy
  N   N1        1.0  0.7076502475875204  0.40716832135503855  0.6018217949216971  1.0000
  C   C1        1.0  0.65683757753136  0.4367508318674165  0.5331322634156022  1.0000
  C   C2        1.0  0.5936216004602842  0.4735493263593986  0.4476911336568221  1.0000
  C   C3        1.0  0.6053613985969416  0.527613710712731  0.3210881769417451  1.0000
  C   C4        1.0  0.544052477750401  0.5629077871233035  0.23804253049248514  1.0000
  C   C5        1.0  0.4708495221958875  0.5444011713751378  0.2809400193468563  1.0000
  C   C6        1.0  0.45813291061042377  0.49021782272127346  0.4080110869821423  1.0000
  C   C7        1.0  0.5202991488712946  0.4549270058994199  0.4910402225049737  1.0000
  C   C8        1.0  0.3803614633391099  0.4705960933179272  0.45376852981425575  1.0000
  C   C9        1.0  0.3615710000215154  0.4977389217624373  0.5808267478526434  1.0000
  C   C10       1.0  0.2883381003455368  0.479273865508153  0.6237648164702316  1.0000
  C   C11       1.0  0.2329526212016553  0.43341142110887465  0.5404825631647816  1.0000
  C   C12       1.0  0.1575829810578969  0.41439305764231227  0.5848213899795864  1.0000
  N   N2        1.0  0.09699112774021182  0.39910357251390094  0.6204667565125479  1.0000
  C   C13       1.0  0.2510515436109855  0.4060994936704525  0.41396726621429414  1.0000
  C   C14       1.0  0.3242316041479907  0.4245794231033462  0.37077330892057403  1.0000
  H   H1        1.0  0.6618305006570391  0.5424493081965875  0.28665580589483897  1.0000
  H   H2        1.0  0.5532602815673795  0.6050384411549543  0.14027659285539307  1.0000
  H   H3        1.0  0.4242168360590221  0.5740592262474498  0.21535855065552267  1.0000
  H   H4        1.0  0.5117896002969454  0.411411082577825  0.5886811885760395  1.0000
  H   H5        1.0  0.4032473378481329  0.5348958276451361  0.6464157367730932  1.0000
  H   H6        1.0  0.274891345000521  0.5010859117547455  0.7217847179285977  1.0000
  H   H7        1.0  0.20865842687214123  0.3702097314766384  0.34879172142891024  1.0000
  H   H8        1.0  0.3371497986289023  0.4012317220377042  0.2730561724428424  1.0000
  C   C15       1.0  0.9022849968850112  0.02176631141510632  0.6110155485440207  1.0000
  C   C16       1.0  0.9059444116484141  0.03108350333520482  0.47452241560705866  1.0000
  C   C17       1.0  0.9069370822602736  0.9186316177961817  0.4055758122354052  1.0000
  C   C18       1.0  0.9059536833507799  0.7958148745294467  0.47484026357668485  1.0000
  C   C19       1.0  0.9023635696867432  0.7844954407453073  0.6112845300829695  1.0000
  C   C20       1.0  0.9003523422451397  0.8980767335273128  0.6785574106929237  1.0000
  C   C21       1.0  0.9115901572298214  0.9283098067259616  0.2615449771746421  1.0000
  O   O1        1.0  0.9477517111433826  0.8418348894735507  0.2083294282448107  1.0000
  C   C22       1.0  0.8752075554806196  0.036007933534542014  0.1778883994845828  1.0000
  C   C23       1.0  0.907390835714252  0.08003132138679825  0.05945627724648461  1.0000
  C   C24       1.0  0.8729893775432271  0.18067716119105315  0.9790160566439052  1.0000
  C   C25       1.0  0.9066302495488442  0.22585524135101176  0.8584675313219163  1.0000
  N   N3        1.0  0.9336760119660127  0.2621688126368571  0.7615641599805434  1.0000
  C   C26       1.0  0.8058438278119563  0.23723111510823136  0.015973427165863363  1.0000
  C   C27       1.0  0.7730264805516692  0.1930108975113194  0.1326355907701513  1.0000
  C   C28       1.0  0.8072122375160046  0.09266700447958809  0.21305408387985292  1.0000
  H   H9        1.0  0.8965345385770978  0.21147470485061914  0.8687347510547776  1.0000
  H   H10       1.0  0.9088683714902891  0.12596683163522693  0.4217744670979171  1.0000
  H   H11       1.0  0.907275750490901  0.7089701755378761  0.4218899634398716  1.0000
  H   H12       1.0  0.8975316118681452  0.8900899590947372  0.7837839073374147  1.0000
  H   H13       1.0  0.9016167242437442  0.4526735020398421  0.663775373876826  1.0000
  H   H14       1.0  0.9594921763046361  0.03687299474115613  0.03037363313104957  1.0000
  H   H15       1.0  0.7787655236770883  0.3150312049310746  0.9544356653425208  1.0000
  H   H16       1.0  0.7207969400533715  0.23618850452226114  0.16055906002819498  1.0000
  H   H17       1.0  0.7800647842533504  0.058485074859418784  0.3019126664152323  1.0000
  C   C29       1.0  0.902349834111311  0.4032727121985922  0.22976455373498017  1.0000
  C   C30       1.0  0.9601866947986504  0.4951857730620455  0.22412314328353466  1.0000
  C   C31       1.0  0.988774477954664  0.5426364923719409  0.10399277212071456  1.0000
  C   C32       1.0  0.9600650356262584  0.4949505570445991  0.9888919183412668  1.0000
  C   C33       1.0  0.9022987056858293  0.4029890864583814  0.9925355623501568  1.0000
  C   C34       1.0  0.873640688260055  0.3579363838814922  0.1134596775079304  1.0000
  C   C35       1.0  0.05038554513744731  0.6386793098951915  0.09799952092071806  1.0000
  O   O2        1.0  0.09839378532727805  0.6329998509217092  0.010661994724843638  1.0000
  C   C36       1.0  0.05752310435680319  0.7411771267153093  0.19100351947112748  1.0000
  C   C37       1.0  0.12896842977067813  0.7862583172165343  0.22619767144579206  1.0000
  C   C38       1.0  0.13625841034024488  0.8841192852169926  0.31279759196900647  1.0000
  C   C39       1.0  0.2096273349353024  0.9289513020983127  0.349114898265102  1.0000
  N   N4        1.0  0.2686076840662266  0.9649855758421575  0.3783061577019222  1.0000
  C   C40       1.0  0.07211014121601855  0.9382991983704223  0.36393744081438273  1.0000
  C   C41       1.0  0.0009152918293933165  0.8952244730486509  0.3282550299901228  1.0000
  C   C42       1.0  0.9934759277422774  0.797636584322359  0.24192360838759197  1.0000
  H   H18       1.0  0.7939947999665908  0.22834199794923005  0.4478827616868031  1.0000
  H   H19       1.0  0.9836444136508  0.5289012409838394  0.3134416392727326  1.0000
  H   H20       1.0  0.9824304274835112  0.530723201968939  0.8962304013103517  1.0000
  H   H21       1.0  0.8290529442837568  0.287077455400754  0.11700498567038409  1.0000
  H   H22       1.0  0.8805406252232334  0.36685297180864396  0.6665607663502704  1.0000
  H   H23       1.0  0.17890799498628374  0.7445036931595688  0.1871943759117236  1.0000
  H   H24       1.0  0.07712949939457103  0.014073345631364198  0.4308833878170193  1.0000
  H   H25       1.0  0.95135011100514  0.9379500416930611  0.3671277758484728  1.0000
  H   H26       1.0  0.9376718110218475  0.7673989069595899  0.21393700559861917  1.0000
  Zn  Zn1       1.0  0.8200056178535554  0.4048375389773424  0.6072098141184366  1.0000
  Zn  Zn2       1.0  0.9846357531792567  0.4014237574749122  0.6150893270912656  1.0000
  C   C43       1.0  0.9023061798317884  0.39786902329735563  0.8483535768427573  1.0000
  C   C44       1.0  0.9023369891172404  0.4083938744514892  0.3739457784608522  1.0000
  C   C45       1.0  0.9023451956827792  0.6403254201371578  0.606058108618468  1.0000
  C   C46       1.0  0.9022979169241216  0.16593591844557953  0.6162413126877926  1.0000
  O   O3        1.0  0.9648089560151902  0.40881140524576565  0.42532454670127273  1.0000
  O   O4        1.0  0.9647846762881404  0.3948595317471153  0.8029548024214024  1.0000
  O   O5        1.0  0.9648153397806454  0.5906461554368296  0.6072994577155029  1.0000
  O   O6        1.0  0.9647782363530529  0.21302479204739444  0.620979791342805  1.0000
  O   O7        1.0  0.8398630784995744  0.5932365055712334  0.6013193471711753  1.0000
  O   O8        1.0  0.8398324151690124  0.39745144221399853  0.796974623178702  1.0000
  O   O9        1.0  0.839856695045981  0.4114032710362354  0.4193428059764648  1.0000
  O   O10       1.0  0.839825975373291  0.21561664851289342  0.6149981479866427  1.0000
