data_image0
_chemical_formula_structural       NC12NC2H8C6SCOC6H10C7OC3FC3H9Zn2C4O8
_chemical_formula_sum              "N2 C44 H27 S1 O10 F1 Zn2"
_cell_length_a       19.240039667572717
_cell_length_b       10.302038109246572
_cell_length_c       10.29938172300155
_cell_angle_alpha    85.58271297890445
_cell_angle_beta     89.98344622294188
_cell_angle_gamma    90.01678309981641

_space_group_name_H-M_alt    "P 1"
_space_group_IT_number       1

loop_
  _space_group_symop_operation_xyz
  'x, y, z'

loop_
  _atom_site_type_symbol
  _atom_site_label
  _atom_site_symmetry_multiplicity
  _atom_site_fract_x
  _atom_site_fract_y
  _atom_site_fract_z
  _atom_site_occupancy
  N   N1        1.0  0.6549214502408364  0.4205692117665354  0.5676812867932293  1.0000
  C   C1        1.0  0.5947730814493909  0.4205692957068399  0.5676812048699134  1.0000
  C   C2        1.0  0.5199550443478456  0.4205694129294999  0.5676810675843462  1.0000
  C   C3        1.0  0.4834552344763216  0.3561458897337271  0.6710824250753804  1.0000
  C   C4        1.0  0.4107844556110082  0.35603505697230164  0.6711689493258644  1.0000
  C   C5        1.0  0.3736228094602297  0.4205695054144474  0.5676808399182494  1.0000
  C   C6        1.0  0.4108368416959027  0.485104140848152  0.4641929250803707  1.0000
  C   C7        1.0  0.4835074993384492  0.484993072674605  0.4642795717933841  1.0000
  C   C8        1.0  0.2964177190230225  0.42056942674762277  0.5676807444904806  1.0000
  C   C9        1.0  0.2592056788932945  0.30734628837995404  0.6095330629372679  1.0000
  C   C10       1.0  0.1865350213894857  0.3074531398464526  0.6094417550778115  1.0000
  C   C11       1.0  0.1500854320701558  0.42056929762103623  0.5676808053797144  1.0000
  C   C12       1.0  0.0752673948589238  0.42056918396870424  0.5676810540212183  1.0000
  N   N2        1.0  0.0151190779681994  0.42056914320805294  0.5676812624331768  1.0000
  C   C13       1.0  0.1865833536275047  0.5336855311916924  0.5259198028032874  1.0000
  C   C14       1.0  0.25925408077909007  0.5337925626947819  0.5258283323789192  1.0000
  H   H1        1.0  0.5111497916199951  0.3062679695760704  0.7518153355980948  1.0000
  H   H2        1.0  0.383670792680156  0.30695531635118956  0.7530174910043745  1.0000
  H   H3        1.0  0.3837639738507299  0.5341839085022859  0.38234433255799005  1.0000
  H   H4        1.0  0.5112427135994964  0.5348708926639534  0.38354693704885734  1.0000
  H   H5        1.0  0.2862801566690499  0.21822006839161223  0.640686177750539  1.0000
  H   H6        1.0  0.1588013632702447  0.21922614925643447  0.6416279776172558  1.0000
  H   H7        1.0  0.1588871882928592  0.6219124972544041  0.49373359481026413  1.0000
  H   H8        1.0  0.2863660818398805  0.6229188618294796  0.4946751728070562  1.0000
  C   C15       1.0  0.8349577803166885  0.03929074068214855  0.5676410988339116  1.0000
  C   C16       1.0  0.7755539183923148  0.0440395817879673  0.488122162962753  1.0000
  C   C17       1.0  0.7463240233143282  0.9294437712812245  0.44807292673522636  1.0000
  C   C18       1.0  0.7757774753727577  0.8089069693381956  0.4880681571979715  1.0000
  C   C19       1.0  0.8350894418887009  0.8018376620719514  0.5677326724764717  1.0000
  C   C20       1.0  0.8644095003470817  0.917682596255738  0.6070210242594647  1.0000
  S   S1        1.0  0.6709214549098108  0.9369519714565807  0.34546466120643515  1.0000
  C   C21       1.0  0.7220419257699557  0.9454082625342467  0.19904383018434824  1.0000
  O   O1        1.0  0.7388073892566195  0.840128437651179  0.15269414485327593  1.0000
  C   C22       1.0  0.744973814739221  0.07155735728514134  0.13354678719562685  1.0000
  C   C23       1.0  0.7941286402468969  0.07387014219496502  0.032041043609690956  1.0000
  C   C24       1.0  0.8164754583097081  0.19219021811221548  0.9703184298340539  1.0000
  C   C25       1.0  0.7900436221723601  0.30943717362205225  0.008819400106115038  1.0000
  C   C26       1.0  0.7410980248145188  0.30859661902937674  0.10897211022571596  1.0000
  C   C27       1.0  0.7185194953012543  0.19058026430570263  0.1710148941081695  1.0000
  H   H9        1.0  0.9468465838231915  0.23764380282496034  0.7176937326505572  1.0000
  H   H10       1.0  0.7519126698416677  0.13655350408996592  0.45684661416717476  1.0000
  H   H11       1.0  0.7523602116844945  0.7211472307687506  0.45630408114709975  1.0000
  H   H12       1.0  0.9102059925313339  0.9131012591968063  0.6683214952867051  1.0000
  H   H13       1.0  0.8577610972625974  0.4718353041609255  0.5976990112548557  1.0000
  H   H14       1.0  0.8156332409720217  0.984297499633192  0.0007437106923848802  1.0000
  H   H15       1.0  0.854400268390284  0.19292349528792951  0.8926214303894415  1.0000
  H   H16       1.0  0.8074234476560918  0.4009291612530306  0.9609454864822613  1.0000
  H   H17       1.0  0.720504581254767  0.3995516918343196  0.13850880282064315  1.0000
  H   H18       1.0  0.6801877224324417  0.1932344014911307  0.24757956454258934  1.0000
  C   C28       1.0  0.8350820919376081  0.42046307973025954  0.18631919273380593  1.0000
  C   C29       1.0  0.8570541367679463  0.2900398365590784  0.1951647737475477  1.0000
  C   C30       1.0  0.8688913797226391  0.22471408123870718  0.08241752358368881  1.0000
  C   C31       1.0  0.8569877123187427  0.29033290051548355  0.959898758923027  1.0000
  C   C32       1.0  0.8349650822621689  0.4206652770203938  0.9490545725850752  1.0000
  C   C33       1.0  0.8243149121254123  0.48508011899006576  0.06285440253219732  1.0000
  C   C34       1.0  0.891388814804914  0.0865787049165776  0.09164623097474878  1.0000
  O   O2        1.0  0.8699693567172383  0.013352134722413256  0.007456185939498594  1.0000
  C   C35       1.0  0.9381902962973816  0.03151877562004213  0.19628482848271145  1.0000
  C   C36       1.0  0.932568527924737  0.8995895125325453  0.24154213935062585  1.0000
  C   C37       1.0  0.9770026559543872  0.8463951138424848  0.33909221571417936  1.0000
  F   F1        1.0  0.9708260852889145  0.7193583540014442  0.3827457649054491  1.0000
  C   C38       1.0  0.02777714080385585  0.9240001094469634  0.3915694485372281  1.0000
  C   C39       1.0  0.03439959857449848  0.05472421298001562  0.3462469344050316  1.0000
  C   C40       1.0  0.9901033648056361  0.10833028342600892  0.24876788330296273  1.0000
  H   H19       1.0  0.7925970785926644  0.6659744846721107  0.37699406028039184  1.0000
  H   H20       1.0  0.8642459089530331  0.23866166628138163  0.28996419443801713  1.0000
  H   H21       1.0  0.8655935516367239  0.23979551493932494  0.8728668840108149  1.0000
  H   H22       1.0  0.8073757765758781  0.5856264197725591  0.055231063305105854  1.0000
  H   H23       1.0  0.8259447822803025  0.47039457740612955  0.6174583818400241  1.0000
  H   H24       1.0  0.893404588882557  0.8380879765395663  0.20216181576708436  1.0000
  H   H25       1.0  0.06219637231156905  0.8828015403343643  0.4669811806712705  1.0000
  H   H26       1.0  0.07410860198774749  0.11447842968032829  0.3862659721102164  1.0000
  H   H27       1.0  0.9969541227942056  0.20926502803114455  0.21351927611569566  1.0000
  Zn  Zn1       1.0  0.7588667123305028  0.4205657275878516  0.5676887677488791  1.0000
  Zn  Zn2       1.0  0.9111738311956858  0.4205620392297522  0.5676843790715329  1.0000
  C   C41       1.0  0.8349847746672204  0.41545463418982664  0.8048806151004066  1.0000
  C   C42       1.0  0.8350574323112263  0.42567477085216154  0.33049265933479455  1.0000
  C   C43       1.0  0.83506175193382  0.6576986806809466  0.5625401860015318  1.0000
  C   C44       1.0  0.8349804027929433  0.18342916444821866  0.5728331574862973  1.0000
  O   O3        1.0  0.8928489131916206  0.4274167978920098  0.37887692560675723  1.0000
  O   O4        1.0  0.8927908727469119  0.41370882818231314  0.7564926439614703  1.0000
  O   O5        1.0  0.8928522534877031  0.6093239596949023  0.5608010330499147  1.0000
  O   O6        1.0  0.8927874804952656  0.2318016756428798  0.5745684391465724  1.0000
  O   O7        1.0  0.7772530110559797  0.6093260911773946  0.5608047076685063  1.0000
  O   O8        1.0  0.7771916305919284  0.41371251958029864  0.7564962495220999  1.0000
  O   O9        1.0  0.7772496713145334  0.4274204436307756  0.3788789697663262  1.0000
  O   O10       1.0  0.7771882385987987  0.23180531212085675  0.5745705806725483  1.0000
