data_image0
_chemical_formula_structural       NC10NC5H10C7OC3OC4H12C7OC3OC4H12Zn2C4O8
_chemical_formula_sum              "N2 C47 H34 O12 Zn2"
_cell_length_a       19.4436361288709
_cell_length_b       10.299371110280156
_cell_length_c       10.299374482448636
_cell_angle_alpha    85.56563777426875
_cell_angle_beta     89.68637327173957
_cell_angle_gamma    89.43124194409341

_space_group_name_H-M_alt    "P 1"
_space_group_IT_number       1

loop_
  _space_group_symop_operation_xyz
  'x, y, z'

loop_
  _atom_site_type_symbol
  _atom_site_label
  _atom_site_symmetry_multiplicity
  _atom_site_fract_x
  _atom_site_fract_y
  _atom_site_fract_z
  _atom_site_occupancy
  N   N1        1.0  0.6480547340609988  0.40965102052148006  0.5625213618412097  1.0000
  C   C1        1.0  0.5892184240109178  0.4195469681531272  0.5769092962864975  1.0000
  C   C2        1.0  0.5158886670489924  0.43188851927106553  0.5949065537313651  1.0000
  C   C3        1.0  0.4737113134505233  0.39993077205403504  0.5002181400701164  1.0000
  C   C4        1.0  0.3978072900069201  0.41036685169518483  0.5055500096424481  1.0000
  C   C5        1.0  0.3580533758374266  0.3855746882663642  0.612618122878479  1.0000
  C   C6        1.0  0.2819347093214011  0.3894966643114459  0.5996595828431734  1.0000
  C   C7        1.0  0.2413682531391467  0.4471191703780626  0.6934537218014669  1.0000
  C   C8        1.0  0.1697064390063328  0.4507612821417035  0.6829106586440923  1.0000
  C   C9        1.0  0.1376162474957665  0.39638475815790075  0.5788598583494138  1.0000
  C   C10       1.0  0.0638252129237376  0.40008817736787905  0.5681615281621228  1.0000
  N   N2        1.0  0.0045022260955912  0.403065532019681  0.5595607799958184  1.0000
  C   C11       1.0  0.1774576877216053  0.3380550035163328  0.4854487264327041  1.0000
  C   C12       1.0  0.2491359522685496  0.3343587719604797  0.49573998370684436  1.0000
  C   C13       1.0  0.386166990988994  0.34505971308601446  0.7437039742370926  1.0000
  C   C14       1.0  0.4448304138962988  0.3881620048750767  0.7909631293470631  1.0000
  C   C15       1.0  0.4890574886748201  0.4860508852782106  0.716626413427274  1.0000
  H   H1        1.0  0.4958168980746548  0.3708510712619262  0.40989779366516377  1.0000
  H   H2        1.0  0.3731217868514323  0.4329000446465261  0.41239574970771664  1.0000
  H   H3        1.0  0.2652348367342875  0.4903765602635839  0.7743200769335528  1.0000
  H   H4        1.0  0.1393588689043137  0.4960456772413828  0.7558499340673517  1.0000
  H   H5        1.0  0.1531192075307103  0.29499313250955006  0.4049169345447421  1.0000
  H   H6        1.0  0.2788175665424941  0.2868307015905667  0.4234962977165315  1.0000
  H   H7        1.0  0.3551869054274803  0.2808161190148233  0.8079313285166705  1.0000
  H   H8        1.0  0.4599655358414497  0.35405427970633596  0.888889685582297  1.0000
  H   H9        1.0  0.4589618967172506  0.5767755066528564  0.6914046856259086  1.0000
  H   H10       1.0  0.5323386041396129  0.5116107421690443  0.77972264681756  1.0000
  C   C16       1.0  0.8262354182212186  0.024987703913148085  0.5609266466255414  1.0000
  C   C17       1.0  0.818333608043859  0.03445500137024671  0.42500428433867476  1.0000
  C   C18       1.0  0.8135712168508712  0.9220574375940407  0.3566234515617108  1.0000
  C   C19       1.0  0.8183676951953706  0.7991864132549499  0.42531509379904375  1.0000
  C   C20       1.0  0.8263281229469458  0.7877187521150576  0.5611667340180744  1.0000
  C   C21       1.0  0.8300358418671216  0.9012208943562613  0.6282255953092559  1.0000
  C   C22       1.0  0.8059447588061432  0.9319129984378104  0.21293672215528292  1.0000
  O   O1        1.0  0.8341494554842325  0.8463691436495611  0.1486781623616764  1.0000
  C   C23       1.0  0.7663138403378538  0.038732075198848914  0.14215353750961723  1.0000
  C   C24       1.0  0.7855599668381834  0.0835683173500692  0.014848432247383858  1.0000
  C   C25       1.0  0.7483696944053692  0.18328604633705892  0.945775051874695  1.0000
  O   O2        1.0  0.7703498522102717  0.22471887230868992  0.8194919713769231  1.0000
  C   C26       1.0  0.7375786747395576  0.32482979369327114  0.7383274422588157  1.0000
  C   C27       1.0  0.6906641270880827  0.23819634949235846  0.004743665560066335  1.0000
  C   C28       1.0  0.6707121292827869  0.19308368966866696  0.13053754242184112  1.0000
  C   C29       1.0  0.7080245836451402  0.09364519216289047  0.19885771442939215  1.0000
  H   H11       1.0  0.8421965652365787  0.2144420395046991  0.8171924813054028  1.0000
  H   H12       1.0  0.8166394667762702  0.12943401218751083  0.37198751366459026  1.0000
  H   H13       1.0  0.8152142599773572  0.7123975250360631  0.37261771836627555  1.0000
  H   H14       1.0  0.8361280012138382  0.8931184923010429  0.7330117736130948  1.0000
  H   H15       1.0  0.829958278619618  0.4558555561289194  0.6132245537646244  1.0000
  H   H16       1.0  0.8300374651085272  0.041861909097203  0.96910521207153  1.0000
  H   H17       1.0  0.7656513200776266  0.3374258141547919  0.6442214031046913  1.0000
  H   H18       1.0  0.7385840764191601  0.4182561404711771  0.7853391486067425  1.0000
  H   H19       1.0  0.6836811050965947  0.29759718856389794  0.7190104594087274  1.0000
  H   H20       1.0  0.6607975998916876  0.31526011711749957  0.9541021788749657  1.0000
  H   H21       1.0  0.6259748920046313  0.2349566073228948  0.17506116179723463  1.0000
  H   H22       1.0  0.690850902190596  0.0587900926846463  0.2953810749036112  1.0000
  C   C30       1.0  0.8263454926901842  0.40643953605865035  0.17966364353099684  1.0000
  C   C31       1.0  0.8981890528311787  0.4197766042123685  0.17670019129185777  1.0000
  C   C32       1.0  0.9343382538188858  0.42797644938385093  0.05791890501114083  1.0000
  C   C33       1.0  0.8980246442073562  0.41971577059491527  0.941462685897918  1.0000
  C   C34       1.0  0.8262180321367577  0.40626689693894513  0.942429674331736  1.0000
  C   C35       1.0  0.7907745249642122  0.4000479884092689  0.062033203739515486  1.0000
  C   C36       1.0  0.010280646625916878  0.4406994608702677  0.05475360007420749  1.0000
  O   O3        1.0  0.044017653541170265  0.3865338556112181  0.968609353999923  1.0000
  C   C37       1.0  0.0479471966718199  0.5148853176662254  0.1492322215619606  1.0000
  C   C38       1.0  0.11504604997527235  0.4769276207131241  0.18682760869278026  1.0000
  C   C39       1.0  0.1517922143465229  0.5465131302149457  0.2747479324288995  1.0000
  O   O4        1.0  0.21833183097028108  0.5033913834363526  0.3094752859374985  1.0000
  C   C40       1.0  0.2614323335694688  0.5644660871175706  0.3975291701548309  1.0000
  C   C41       1.0  0.12105937821861157  0.6564680793760973  0.3249523845647666  1.0000
  C   C42       1.0  0.054763715992389495  0.6957441565991174  0.286840193096916  1.0000
  C   C43       1.0  0.018414494368015566  0.6259183030952093  0.1991575314605225  1.0000
  H   H23       1.0  0.6908851880733627  0.37928114237863264  0.3927303665553328  1.0000
  H   H24       1.0  0.926201934996341  0.4223510574991156  0.26705978219869264  1.0000
  H   H25       1.0  0.9258792018395352  0.4250567568407504  0.8498395718420868  1.0000
  H   H26       1.0  0.7353883889691482  0.3897652318545848  0.06351409319467116  1.0000
  H   H27       1.0  0.7986978624894678  0.40001574411615937  0.6154273339001453  1.0000
  H   H28       1.0  0.13888823179271337  0.3921746309723513  0.14872445163294956  1.0000
  H   H29       1.0  0.3109342589576487  0.51019406522901  0.4070598614372676  1.0000
  H   H30       1.0  0.23659601655157192  0.5631240000307938  0.4949695886236529  1.0000
  H   H31       1.0  0.27201881044693854  0.666276731801533  0.35981191095325493  1.0000
  H   H32       1.0  0.14801854093165345  0.7124079979723528  0.392937242485766  1.0000
  H   H33       1.0  0.03156754357075586  0.7809742631783998  0.3249670700591012  1.0000
  H   H34       1.0  0.9675582091161664  0.6595848231856383  0.16936609121880997  1.0000
  Zn  Zn1       1.0  0.7509177801623594  0.4077471177100698  0.561674513197534  1.0000
  Zn  Zn2       1.0  0.9016391684353997  0.4049588246862146  0.5604183068760926  1.0000
  C   C44       1.0  0.8262399682025663  0.4011258673946838  0.7982489821164931  1.0000
  C   C45       1.0  0.8263186264459157  0.4115816831511161  0.32384395222632834  1.0000
  C   C46       1.0  0.8263079185328523  0.6435475760595892  0.5559460038699005  1.0000
  C   C47       1.0  0.8262506244837543  0.16915841511288354  0.5661469996516639  1.0000
  O   O5        1.0  0.8835075905588329  0.412243626253082  0.3717554553923561  1.0000
  O   O6        1.0  0.883445050276755  0.3983466947623311  0.7493836732508792  1.0000
  O   O7        1.0  0.8834991497460178  0.5941053043088322  0.5537223108345675  1.0000
  O   O8        1.0  0.88345343967597  0.21648502697033556  0.567416720861976  1.0000
  O   O9        1.0  0.7691034574879778  0.5962209163788716  0.5546760996335016  1.0000
  O   O10       1.0  0.7690493582167786  0.4004638671586205  0.7503373932929212  1.0000
  O   O11       1.0  0.7691118988000063  0.4143607537457552  0.3727076139612644  1.0000
  O   O12       1.0  0.7690577478969319  0.2186021451521769  0.5683689767994267  1.0000
