data_image0
_chemical_formula_structural       NC12NC2H8C7OC6H10C7OC3NC3H11Zn2C4O8
_chemical_formula_sum              "N3 C44 H29 O10 Zn2"
_cell_length_a       17.80743265337812
_cell_length_b       10.299379429549807
_cell_length_c       10.298749378158432
_cell_angle_alpha    85.5342726072926
_cell_angle_beta     91.54305523849354
_cell_angle_gamma    89.43379168207073

_space_group_name_H-M_alt    "P 1"
_space_group_IT_number       1

loop_
  _space_group_symop_operation_xyz
  'x, y, z'

loop_
  _atom_site_type_symbol
  _atom_site_label
  _atom_site_symmetry_multiplicity
  _atom_site_fract_x
  _atom_site_fract_y
  _atom_site_fract_z
  _atom_site_occupancy
  N   N1        1.0  0.7072542768432051  0.40683657931115835  0.6007134556894791  1.0000
  C   C1        1.0  0.6564270813614062  0.43640046128147647  0.5319988584534387  1.0000
  C   C2        1.0  0.5931930362931447  0.47317578430516916  0.4465265489114987  1.0000
  C   C3        1.0  0.6049061196247028  0.5272058069536938  0.31987773463305036  1.0000
  C   C4        1.0  0.5435796962471281  0.5624773336876596  0.23680213380144743  1.0000
  C   C5        1.0  0.47038581598854506  0.543982349818142  0.279715300270591  1.0000
  C   C6        1.0  0.457696007900625  0.4898334946904843  0.40683233489002757  1.0000
  C   C7        1.0  0.5198797456809052  0.4545652228405235  0.4898914216315575  1.0000
  C   C8        1.0  0.3799342261789648  0.4702241796535034  0.4526064123519038  1.0000
  C   C9        1.0  0.36116043106614987  0.49740629068270903  0.5796501715437392  1.0000
  C   C10       1.0  0.28793660791139813  0.4789528807914898  0.6226038887205394  1.0000
  C   C11       1.0  0.2325437010249672  0.43306303367178  0.5393519696018978  1.0000
  C   C12       1.0  0.15718342738897173  0.41405669939687284  0.5837069190132611  1.0000
  N   N2        1.0  0.096599104102816  0.39877688490929764  0.6193652470264519  1.0000
  C   C13       1.0  0.250626061974053  0.405711974702643  0.41285128152969586  1.0000
  C   C14       1.0  0.3237970037565455  0.4241801827574916  0.3696416531299045  1.0000
  H   H1        1.0  0.6613679396225203  0.5420320667977856  0.2854327938391754  1.0000
  H   H2        1.0  0.5527668227826712  0.6045814752020324  0.13900050088618232  1.0000
  H   H3        1.0  0.4237390854758322  0.5736227023904101  0.21410884935339203  1.0000
  H   H4        1.0  0.511391027272015  0.4110756933327826  0.5875691066197435  1.0000
  H   H5        1.0  0.40284248929200633  0.5345848387625407  0.645214499591074  1.0000
  H   H6        1.0  0.27450260264530874  0.5007952832692055  0.7206119875160106  1.0000
  H   H7        1.0  0.2082271321923599  0.3698007676087698  0.347699474705639  1.0000
  H   H8        1.0  0.3367026872788828  0.4008021247526852  0.27193747390686185  1.0000
  C   C15       1.0  0.9019384981468445  0.021414582809990312  0.6101939755898793  1.0000
  C   C16       1.0  0.9474892754758254  0.010575130486192519  0.7241304952213199  1.0000
  C   C17       1.0  0.9697596466848138  0.8878832804633832  0.7824142878631957  1.0000
  C   C18       1.0  0.9473978067063814  0.7753549710323496  0.7238498092974521  1.0000
  C   C19       1.0  0.9019220798125163  0.7841887712713679  0.6098962582249314  1.0000
  C   C20       1.0  0.8792930551136023  0.9076904562919063  0.553918660195353  1.0000
  C   C21       1.0  0.018510255443785484  0.8763410071140468  0.9019563876158796  1.0000
  O   O1        1.0  0.06617241043388655  0.7845670634764923  0.9165968324594358  1.0000
  C   C22       1.0  0.013187015883426412  0.9688095920189007  0.004894226077381325  1.0000
  C   C23       1.0  0.0774542564126306  0.9969389128901098  0.07954123937201629  1.0000
  C   C24       1.0  0.07281001910104767  0.08278766991423314  0.17781874611074955  1.0000
  C   C25       1.0  0.003994268749600405  0.14050377717318097  0.20328257700755925  1.0000
  C   C26       1.0  0.9396120539219848  0.11206780939219185  0.13087433060829534  1.0000
  C   C27       1.0  0.943954593408259  0.026304956751239894  0.032494697088455315  1.0000
  H   H9        1.0  0.8169293411693372  0.24926008752546802  0.3940735475082733  1.0000
  H   H10       1.0  0.9663907705175389  0.0977688694212866  0.766876256072121  1.0000
  H   H11       1.0  0.9649886051259117  0.6806863468648933  0.7681331058069114  1.0000
  H   H12       1.0  0.8441771921549711  0.9152427570420505  0.46608160200946935  1.0000
  H   H13       1.0  0.8849751727657403  0.4601640259767928  0.5655134107097288  1.0000
  H   H14       1.0  0.13134704422742027  0.9533796419417734  0.06107402040586252  1.0000
  H   H15       1.0  0.12261485359294011  0.10452301960169996  0.23430496374560394  1.0000
  H   H16       1.0  0.000501819357390243  0.2068410861757919  0.27946224169581935  1.0000
  H   H17       1.0  0.8862028645737123  0.1560556728407172  0.15136469855716495  1.0000
  H   H18       1.0  0.8931125285906089  0.0039059630005744417  0.9791187832328949  1.0000
  C   C28       1.0  0.9018956368920444  0.40283039576015445  0.2286423938178126  1.0000
  C   C29       1.0  0.9429295089202252  0.5188526268087603  0.22054296462420808  1.0000
  C   C30       1.0  0.9629249056096744  0.5783380437544186  0.09917221035969481  1.0000
  C   C31       1.0  0.9429324936181338  0.5189014293346621  0.9852990591659117  1.0000
  C   C32       1.0  0.9019649146945254  0.402772926020446  0.9914478441662786  1.0000
  C   C33       1.0  0.8815338771810735  0.3456584957676774  0.11354552527966355  1.0000
  C   C34       1.0  0.00686560726936003  0.7002036495553767  0.09054928494940429  1.0000
  O   O2        1.0  0.05380760227687387  0.7175758046252683  0.0014440097573216182  1.0000
  C   C35       1.0  0.9975547619218289  0.8023532224772703  0.18295324321558804  1.0000
  C   C36       1.0  0.9272708617378964  0.8263834832402206  0.2362817391459835  1.0000
  C   C37       1.0  0.918865228601288  0.9240652702297167  0.32254138180440495  1.0000
  N   N3        1.0  0.8473386853346669  0.9473988353006668  0.37677851501677906  1.0000
  C   C38       1.0  0.9808554515329205  0.9990376464584731  0.35487904466121956  1.0000
  C   C39       1.0  0.05054729897186938  0.9769704079154329  0.30106209267965944  1.0000
  C   C40       1.0  0.0589096311231172  0.87960120619698  0.21517705897348094  1.0000
  H   H19       1.0  0.8253574942707692  0.18257114330912438  0.4514348373688297  1.0000
  H   H20       1.0  0.9600856082936136  0.5623458815347919  0.3088939180763579  1.0000
  H   H21       1.0  0.9587754419658719  0.5640981203991595  0.8916339896350625  1.0000
  H   H22       1.0  0.8499077431540896  0.2562238246118784  0.11903710576266135  1.0000
  H   H23       1.0  0.8248287660662982  0.183105075384707  0.795794800580734  1.0000
  H   H24       1.0  0.8787985715690437  0.7703762993726808  0.20993884532526796  1.0000
  H   H25       1.0  0.8007546654542828  0.8920877832068033  0.3533407868579581  1.0000
  H   H26       1.0  0.8404537457560104  0.020064020845383723  0.440908181661938  1.0000
  H   H27       1.0  0.9750810914664249  0.07477598376357708  0.4213060509764517  1.0000
  H   H28       1.0  0.09821695845660705  0.035454167985833784  0.32595893452252267  1.0000
  H   H29       1.0  0.11348762988308159  0.8638258496697024  0.17479688293206008  1.0000
  Zn  Zn1       1.0  0.8196107877727278  0.40450725755116057  0.6061034487179959  1.0000
  Zn  Zn2       1.0  0.9842425918699163  0.4010956117687816  0.6139858521230188  1.0000
  C   C41       1.0  0.901950271317076  0.3976098496547451  0.8472632227140862  1.0000
  C   C42       1.0  0.9019049060760473  0.4079946211196537  0.37282629104069276  1.0000
  C   C43       1.0  0.9019208420012799  0.6400086753590086  0.6047767242590281  1.0000
  C   C44       1.0  0.9019342792544034  0.16559423617697044  0.6153128566598256  1.0000
  O   O3        1.0  0.9643849286898956  0.40842741444602404  0.42420705730903285  1.0000
  O   O4        1.0  0.9644219786794807  0.39458671636579945  0.801864644746985  1.0000
  O   O5        1.0  0.9643973720388275  0.5903268510250377  0.6060550407600889  1.0000
  O   O6        1.0  0.964409479143819  0.21268729024906907  0.620016561219271  1.0000
  O   O7        1.0  0.8394438443180694  0.5929155802365145  0.600072736925034  1.0000
  O   O8        1.0  0.839468450915407  0.39717700598133776  0.7958822710511455  1.0000
  O   O9        1.0  0.8394314008349002  0.4110176589194112  0.4182231220941288  1.0000
  O   O10       1.0  0.8394559512947979  0.21527752542581435  0.6140327233843152  1.0000
