data_image0
_chemical_formula_structural       NC8NC6H8C7OC4NC3H9C7OC6H10Zn2C4O8
_chemical_formula_sum              "N3 C45 H27 O10 Zn2"
_cell_length_a       17.457602349358154
_cell_length_b       10.299371701877257
_cell_length_c       10.299382801718286
_cell_angle_alpha    85.59153606020502
_cell_angle_beta     92.85617812018302
_cell_angle_gamma    91.69730494660953

_space_group_name_H-M_alt    "P 1"
_space_group_IT_number       1

loop_
  _space_group_symop_operation_xyz
  'x, y, z'

loop_
  _atom_site_type_symbol
  _atom_site_label
  _atom_site_symmetry_multiplicity
  _atom_site_fract_x
  _atom_site_fract_y
  _atom_site_fract_z
  _atom_site_occupancy
  N   N1        1.0  0.72285330027782  0.4525875145826217  0.6270413560343069  1.0000
  C   C1        1.0  0.661772668643105  0.40666025478060996  0.6164094069572705  1.0000
  C   C2        1.0  0.5857857785427762  0.3495324597101186  0.6031928061772882  1.0000
  C   C3        1.0  0.5272463454667852  0.38970798373813276  0.6781038203128178  1.0000
  C   C4        1.0  0.4526976375507512  0.33469856823514554  0.6655024043241187  1.0000
  C   C5        1.0  0.3905666568293782  0.37711804775011215  0.7448359638310289  1.0000
  C   C6        1.0  0.31603312283051704  0.39557640012322737  0.6890797593942715  1.0000
  C   C7        1.0  0.2574936459149924  0.43556801774435727  0.7640986602764517  1.0000
  C   C8        1.0  0.1815224647874722  0.45463182357700593  0.7061272395448652  1.0000
  N   N2        1.0  0.1204545509671897  0.4699527437799391  0.6595183660494506  1.0000
  C   C9        1.0  0.2729954638334896  0.45734451719617053  0.8953823632118283  1.0000
  C   C10       1.0  0.3467442569546291  0.43927522271900066  0.9515262993180309  1.0000
  C   C11       1.0  0.4052720560474594  0.39946374277540975  0.8769651779468881  1.0000
  C   C12       1.0  0.437977224812653  0.2388359480080393  0.5765568317792258  1.0000
  C   C13       1.0  0.49650488878838656  0.1989391771399749  0.5020459150518299  1.0000
  C   C14       1.0  0.5702687325228687  0.2540610681280695  0.5151973137264831  1.0000
  H   H1        1.0  0.5395849230963956  0.46491458248818884  0.7447604565499133  1.0000
  H   H2        1.0  0.3037070172520386  0.38058761120415974  0.5870512722043986  1.0000
  H   H3        1.0  0.2281259345502007  0.4882380224363354  0.9542284375264203  1.0000
  H   H4        1.0  0.3585568901671847  0.45582160862760923  0.053182085820060565  1.0000
  H   H5        1.0  0.46174684369173413  0.3844802408527843  0.9230656893500462  1.0000
  H   H6        1.0  0.3814899404459177  0.19349835138055527  0.565888976378512  1.0000
  H   H7        1.0  0.48468047876017606  0.12484882595789015  0.4341913709623324  1.0000
  H   H8        1.0  0.6151381117279076  0.22229795516576645  0.4568620478516041  1.0000
  C   C15       1.0  0.9216174885555665  0.07989806434806823  0.6431498926569614  1.0000
  C   C16       1.0  0.9253726137251684  0.08937780927343675  0.5067942989109198  1.0000
  C   C17       1.0  0.9263954680109739  0.9769521596849496  0.43788676415226924  1.0000
  C   C18       1.0  0.9253820401689328  0.8541099636321505  0.5071124587844875  1.0000
  C   C19       1.0  0.921697693309408  0.8426324740697592  0.6434216510312478  1.0000
  C   C20       1.0  0.9196348870857136  0.9561200944168508  0.7106193663724552  1.0000
  C   C21       1.0  0.9311663381261798  0.9868535590584993  0.29402918798694544  1.0000
  O   O1        1.0  0.9681023706390571  0.9027098034961022  0.2421013762029931  1.0000
  C   C22       1.0  0.8940226648072772  0.09212951545833636  0.20908456204583836  1.0000
  C   C23       1.0  0.9269046177598927  0.13818784218913405  0.0918024244845097  1.0000
  C   C24       1.0  0.8917837077385111  0.23654265700826937  0.010144367573158064  1.0000
  C   C25       1.0  0.9261544661907465  0.2838496559867456  0.8907977311709163  1.0000
  N   N3        1.0  0.9537870231723251  0.3218747900272392  0.7948606243014691  1.0000
  C   C26       1.0  0.8232082683590082  0.28873345372001324  0.0447140487323372  1.0000
  C   C27       1.0  0.7896790258683526  0.24243590969115014  0.16020379706613386  1.0000
  C   C28       1.0  0.8245796598164535  0.14436894667452793  0.2418324639100582  1.0000
  H   H9        1.0  0.9157109130672862  0.2693752068455757  0.9006505816705173  1.0000
  H   H10       1.0  0.9283656023068202  0.18442252733001285  0.4541531442361457  1.0000
  H   H11       1.0  0.9267391664836548  0.7673219559717209  0.4542120490684838  1.0000
  H   H12       1.0  0.9167403796668426  0.9480080304774335  0.8157398449392348  1.0000
  H   H13       1.0  0.9209280571421733  0.5107911423548975  0.6958830671052143  1.0000
  H   H14       1.0  0.9801155295720333  0.09841486422971712  0.06457252144301395  1.0000
  H   H15       1.0  0.7955634292910908  0.36473121198925096  0.982217597479945  1.0000
  H   H16       1.0  0.7363373466880683  0.2822191495008881  0.18627003424098  1.0000
  H   H17       1.0  0.7968443175867627  0.10846431417849445  0.3297216122663662  1.0000
  C   C29       1.0  0.9217341136046563  0.4611953970276197  0.26192221113531056  1.0000
  C   C30       1.0  0.0023336697642262205  0.46557904282590123  0.2672024205004966  1.0000
  C   C31       1.0  0.042985643795217854  0.4663019408371978  0.15280696261101223  1.0000
  C   C32       1.0  0.002146719504848349  0.46559891461440484  0.031941591018622484  1.0000
  C   C33       1.0  0.9215810359030854  0.46133516734554814  0.024649292466193407  1.0000
  C   C34       1.0  0.8818420344663862  0.45881341698185474  0.14024347833056905  1.0000
  C   C35       1.0  0.12808844393959617  0.4723144642816388  0.15813066892383043  1.0000
  O   O2        1.0  0.16189810149074257  0.534500153655566  0.0663865779822741  1.0000
  C   C36       1.0  0.17483606776221627  0.4077727687503896  0.2674321373190427  1.0000
  C   C37       1.0  0.24695217893738897  0.46138237469099264  0.3044417178752661  1.0000
  C   C38       1.0  0.2918290663918055  0.4004083009897217  0.40633989425663986  1.0000
  C   C39       1.0  0.2655292843448043  0.2849557453272191  0.4715158565753197  1.0000
  C   C40       1.0  0.19443035414518262  0.22994359742379156  0.4345658396896517  1.0000
  C   C41       1.0  0.14933487405744428  0.29052941062728044  0.3327517371572559  1.0000
  H   H18       1.0  0.769630897422484  0.45493451061352075  0.45912292595032067  1.0000
  H   H19       1.0  0.033588846449506216  0.4698945928616596  0.3603552883656871  1.0000
  H   H20       1.0  0.03340947967946728  0.46713566297725984  0.9435437849496675  1.0000
  H   H21       1.0  0.8197058495381997  0.45543475507242426  0.13536859973313842  1.0000
  H   H22       1.0  0.890631369886508  0.4608022098179567  0.6943064959793217  1.0000
  H   H23       1.0  0.2682612109221114  0.5509863521298188  0.25527764745094705  1.0000
  H   H24       1.0  0.3470581924965541  0.44270429274936896  0.4347377023262702  1.0000
  H   H25       1.0  0.3003758619609078  0.23785025756892542  0.5502886932896305  1.0000
  H   H26       1.0  0.17437006291127455  0.1399382485615832  0.4844605136979294  1.0000
  H   H27       1.0  0.0950266251167029  0.24499145935917332  0.3042417859998603  1.0000
  Zn  Zn1       1.0  0.8375924307284961  0.4575952632608462  0.6364210167050437  1.0000
  Zn  Zn2       1.0  0.005715403013472509  0.4649343491382234  0.6501493339631057  1.0000
  C   C42       1.0  0.9216077384810504  0.4561349444441467  0.880475594559025  1.0000
  C   C43       1.0  0.921701931305275  0.4663963867545946  0.4060950340704301  1.0000
  C   C44       1.0  0.921679620437239  0.6984583297864277  0.6381948647593114  1.0000
  C   C45       1.0  0.921629991802505  0.22407143860463807  0.6483758278673455  1.0000
  O   O3        1.0  0.985492921837764  0.4709213654707791  0.45969057331744256  1.0000
  O   O4        1.0  0.9854181937840772  0.4571791822945428  0.8372991562693766  1.0000
  O   O5        1.0  0.985475379023138  0.6528583432582722  0.6416556830289366  1.0000
  O   O6        1.0  0.985435679250237  0.2752422112751767  0.6553339445033461  1.0000
  O   O7        1.0  0.8578720971196137  0.6472873986208361  0.6312364014731715  1.0000
  O   O8        1.0  0.8578149120550167  0.4516097979617246  0.8268798060247784  1.0000
  O   O9        1.0  0.8578896404682745  0.4653519355977216  0.4492696616821119  1.0000
  O   O10       1.0  0.857832397857096  0.2696727721309353  0.6449131302309206  1.0000
