data_image0
_chemical_formula_structural       NC9NC5H8C6SCOC6H10C7OC6H10Zn2C4O8
_chemical_formula_sum              "N2 C44 H28 S1 O10 Zn2"
_cell_length_a       17.807436237873137
_cell_length_b       10.302038109246572
_cell_length_c       10.299382801718286
_cell_angle_alpha    85.57853228507349
_cell_angle_beta     89.37299496534968
_cell_angle_gamma    88.4085403614985

_space_group_name_H-M_alt    "P 1"
_space_group_IT_number       1

loop_
  _space_group_symop_operation_xyz
  'x, y, z'

loop_
  _atom_site_type_symbol
  _atom_site_label
  _atom_site_symmetry_multiplicity
  _atom_site_fract_x
  _atom_site_fract_y
  _atom_site_fract_z
  _atom_site_occupancy
  N   N1        1.0  0.7079542410353218  0.38713045870545026  0.5572835506758798  1.0000
  C   C1        1.0  0.6473623261435012  0.3519473005470317  0.54625541678775  1.0000
  C   C2        1.0  0.5719926436369666  0.30818332636669377  0.5325376156593657  1.0000
  C   C3        1.0  0.5539086161778026  0.236765492967145  0.4275256728241239  1.0000
  C   C4        1.0  0.48072853918672404  0.1941625617066507  0.41412393003975945  1.0000
  C   C5        1.0  0.4245837071939498  0.22260002138194457  0.50570163377052  1.0000
  C   C6        1.0  0.3468121550909735  0.17743898182442996  0.4915411402872558  1.0000
  C   C7        1.0  0.2846459258612406  0.2591799527473171  0.5174898504779231  1.0000
  C   C8        1.0  0.2113235034758337  0.2163740363555242  0.5041017649933772  1.0000
  C   C9        1.0  0.148107614347314  0.30080576356807365  0.5304146974099946  1.0000
  N   N2        1.0  0.0972950268352883  0.3686830311360556  0.5515695678927004  1.0000
  C   C10       1.0  0.1995837223877124  0.09156922804953194  0.46473958901964574  1.0000
  C   C11       1.0  0.2608925808673778  0.00981440662603017  0.438782487444628  1.0000
  C   C12       1.0  0.3340955376541611  0.052225840238479204  0.45196798674761407  1.0000
  C   C13       1.0  0.4433591880528398  0.2945121414285614  0.6109328659048432  1.0000
  C   C14       1.0  0.5165921315806851  0.33692469512485435  0.6241789344775446  1.0000
  H   H1        1.0  0.5963134816005856  0.2142718616544852  0.35580979537631996  1.0000
  H   H2        1.0  0.467822327256351  0.14047742684308218  0.3311966051956412  1.0000
  H   H3        1.0  0.29315586146376  0.3566263063898425  0.5463785428268897  1.0000
  H   H4        1.0  0.1431144433557204  0.057539551469240724  0.45414063321317877  1.0000
  H   H5        1.0  0.2516846900206923  0.9131877151460015  0.40869347234056996  1.0000
  H   H6        1.0  0.380727874407256  0.9864933926694363  0.43291172848064075  1.0000
  H   H7        1.0  0.401670847356477  0.3164671094209561  0.68394318688845  1.0000
  H   H8        1.0  0.5300271258015385  0.3918299099961806  0.7060647692339221  1.0000
  C   C15       1.0  0.9025570766481862  0.9966315152156118  0.5543874134610813  1.0000
  C   C16       1.0  0.8383493659432448  0.004428400744231675  0.47581033449500776  1.0000
  C   C17       1.0  0.8067557471735384  0.8913324581396089  0.4362245369895601  1.0000
  C   C18       1.0  0.838591012284171  0.7692843428034656  0.47575278208103344  1.0000
  C   C19       1.0  0.9026993879760123  0.7591716870519578  0.5544768990819173  1.0000
  C   C20       1.0  0.9343904884757258  0.8735121902361765  0.5933003772971823  1.0000
  S   S1        1.0  0.7252556040569619  0.9027097250750411  0.33481178014902646  1.0000
  C   C21       1.0  0.7805166584676451  0.9085584080654396  0.1875791368503934  1.0000
  O   O1        1.0  0.798640015978859  0.8024232725260759  0.1409632196903492  1.0000
  C   C22       1.0  0.8053059464428882  0.03353775501957856  0.12171792796396042  1.0000
  C   C23       1.0  0.8584409394519853  0.03334037973139914  0.01943182311461067  1.0000
  C   C24       1.0  0.8825977033769251  0.150520401245686  0.9573543471851242  1.0000
  C   C25       1.0  0.8540261204733938  0.2691182890831636  0.9962748415961928  1.0000
  C   C26       1.0  0.8011173255092288  0.2707772762194669  0.09720458583283786  1.0000
  C   C27       1.0  0.7767100928383941  0.15391281992541672  0.15960590947194864  1.0000
  H   H9        1.0  0.02349405262676374  0.18924348223820764  0.7026660356199397  1.0000
  H   H10       1.0  0.8127962945647481  0.09815534173996543  0.4449096233744152  1.0000
  H   H11       1.0  0.8132800630815096  0.6827261866906983  0.44435998765996754  1.0000
  H   H12       1.0  0.983890433975211  0.8665810105330208  0.6538747382329682  1.0000
  H   H13       1.0  0.927204457834339  0.42800606161012117  0.5840837731588964  1.0000
  H   H14       1.0  0.8816864097133249  0.9426686341592819  0.9877931709320507  1.0000
  H   H15       1.0  0.9235933444911875  0.1493169503664924  0.8790552731752626  1.0000
  H   H16       1.0  0.8728135939804028  0.35972361113051354  0.948124941257495  1.0000
  H   H17       1.0  0.7788567869758544  0.362784913841143  0.12706813327229405  1.0000
  H   H18       1.0  0.7352745968545866  0.15852460879261332  0.2367791033989346  1.0000
  C   C28       1.0  0.9027031472918632  0.37782483946751033  0.17306124632044306  1.0000
  C   C29       1.0  0.9816282583884054  0.3749485393755543  0.17059939700380533  1.0000
  C   C30       1.0  0.021435568689449624  0.37201010556983194  0.052299419936166824  1.0000
  C   C31       1.0  0.9814451945065356  0.37498524320493587  0.935356518311039  1.0000
  C   C32       1.0  0.9025532621371092  0.37797836182973166  0.9358029977583713  1.0000
  C   C33       1.0  0.863639803047082  0.37903616125349116  0.055214429594921954  1.0000
  C   C34       1.0  0.10477048514733167  0.3703567173402078  0.049448187841635516  1.0000
  O   O2        1.0  0.1378827953737336  0.42948222783155976  0.9544426673080104  1.0000
  C   C35       1.0  0.1505413263738935  0.30162071486418274  0.1542746301663478  1.0000
  C   C36       1.0  0.2211633878183148  0.3487223302293021  0.18434566237412797  1.0000
  C   C37       1.0  0.2651026636632956  0.28372155495481355  0.28194766788043557  1.0000
  C   C38       1.0  0.23933972607022747  0.1706658943781978  0.3496759794009694  1.0000
  C   C39       1.0  0.16971359195290137  0.12207047273037608  0.3195671384095302  1.0000
  C   C40       1.0  0.1255602332501855  0.18670276937531893  0.22207029000987166  1.0000
  H   H19       1.0  0.7537600233414284  0.38526404533628056  0.384871903978963  1.0000
  H   H20       1.0  0.01223433155030662  0.37644816087009847  0.2607494236216754  1.0000
  H   H21       1.0  0.012058461323883884  0.3737060614925374  0.8439557787591512  1.0000
  H   H22       1.0  0.8027944891661621  0.38125437042018206  0.056308094723585  1.0000
  H   H23       1.0  0.8722466674623112  0.3802328906683281  0.6084328343453462  1.0000
  H   H24       1.0  0.24203711976964182  0.43638522298307825  0.1331144884581701  1.0000
  H   H25       1.0  0.31918769607451947  0.32103318812367676  0.3050314008715709  1.0000
  H   H26       1.0  0.2734582751680348  0.12043364309161841  0.4251128155510988  1.0000
  H   H27       1.0  0.15006261910603502  0.03389384422909236  0.37140907448509797  1.0000
  H   H28       1.0  0.0723766717518608  0.1460670366669008  0.19878671189165953  1.0000
  Zn  Zn1       1.0  0.8203095782782844  0.38180346667357346  0.5556421290984179  1.0000
  Zn  Zn2       1.0  0.9849396673226654  0.3739994417476835  0.5532216648959623  1.0000
  C   C41       1.0  0.9025789752143225  0.37277700931350544  0.7916279256522056  1.0000
  C   C42       1.0  0.9026720684227187  0.3830274521300632  0.31723596957008415  1.0000
  C   C43       1.0  0.9026696169981635  0.6150344962397127  0.549284820687439  1.0000
  C   C44       1.0  0.9025813701574601  0.14076840796212542  0.5595791444167717  1.0000
  O   O3        1.0  0.9651378978288137  0.3818062453304689  0.36470376953002615  1.0000
  O   O4        1.0  0.9650635740026384  0.36807416221053124  0.7423226754054422  1.0000
  O   O5        1.0  0.9651359259142218  0.5637001868629146  0.5466289160698197  1.0000
  O   O6        1.0  0.9650654897609972  0.18618023260940797  0.5603974323175049  1.0000
  O   O7        1.0  0.8401836996597849  0.5696226784763918  0.5484663624960298  1.0000
  O   O8        1.0  0.840111348049451  0.37399821373028175  0.7441600527688865  1.0000
  O   O9        1.0  0.8401856722239193  0.3877302512887648  0.3665395854786282  1.0000
  O   O10       1.0  0.8401132641321677  0.19210422930092386  0.5622333456334061  1.0000
