data_image0
_chemical_formula_structural       NC12NC2H8C7OC3NC3H11C7OC3OC4H12Zn2C4O8
_chemical_formula_sum              "N3 C45 H31 O11 Zn2"
_cell_length_a       17.80743265337812
_cell_length_b       10.298746005989749
_cell_length_c       10.299374482448636
_cell_angle_alpha    85.55101224981432
_cell_angle_beta     91.51588487774274
_cell_angle_gamma    89.44452832379845

_space_group_name_H-M_alt    "P 1"
_space_group_IT_number       1

loop_
  _space_group_symop_operation_xyz
  'x, y, z'

loop_
  _atom_site_type_symbol
  _atom_site_label
  _atom_site_symmetry_multiplicity
  _atom_site_fract_x
  _atom_site_fract_y
  _atom_site_fract_z
  _atom_site_occupancy
  N   N1        1.0  0.7077992899508633  0.4070809485656035  0.6014391745351193  1.0000
  C   C1        1.0  0.6569942920504541  0.4366558748117251  0.5327422516499756  1.0000
  C   C2        1.0  0.5937878581613283  0.4734449355624255  0.44729192749176283  1.0000
  C   C3        1.0  0.6055418010597988  0.527495302950751  0.3206754801646865  1.0000
  C   C4        1.0  0.5442421600199966  0.5627801707645368  0.23762103342745977  1.0000
  C   C5        1.0  0.4710344133891874  0.5442782888271942  0.2805231475098471  1.0000
  C   C6        1.0  0.4583036040257215  0.490109015702471  0.40760773229576786  1.0000
  C   C7        1.0  0.5204605643580968  0.4548274053338204  0.4906456674405848  1.0000
  C   C8        1.0  0.38052704520881364  0.4704923455917902  0.4533700744803364  1.0000
  C   C9        1.0  0.36172166583094323  0.4976560168527333  0.5804183551903661  1.0000
  C   C10       1.0  0.28848397002369386  0.4791957038036805  0.6233610363764428  1.0000
  C   C11       1.0  0.23310851628072632  0.4333172611560221  0.5400933924738476  1.0000
  C   C12       1.0  0.1577339231083487  0.41430379971577525  0.584436968178814  1.0000
  N   N2        1.0  0.097138087896649  0.39901825547686  0.6200861525012062  1.0000
  C   C13       1.0  0.2512222935369193  0.405984556234118  0.4135880726074317  1.0000
  C   C14       1.0  0.324407179629937  0.42445970627335927  0.3703895027037023  1.0000
  H   H1        1.0  0.6620147489241606  0.5423270991791078  0.2862394020941499  1.0000
  H   H2        1.0  0.5534608834020455  0.6049000322444049  0.1398445681826226  1.0000
  H   H3        1.0  0.4244090397432494  0.5739292203077577  0.2149342140560766  1.0000
  H   H4        1.0  0.511940122913636  0.41132214098302566  0.5882975627094778  1.0000
  H   H5        1.0  0.4033900989611277  0.5348256085558323  0.645995539130658  1.0000
  H   H6        1.0  0.2750256998632376  0.5010239020036757  0.7213730199766022  1.0000
  H   H7        1.0  0.20883702252503264  0.37008227416084827  0.34842396049100977  1.0000
  H   H8        1.0  0.3373368675465829  0.40109576971695415  0.2726807219451075  1.0000
  C   C15       1.0  0.9024363882745129  0.02164820445543514  0.6107439265298555  1.0000
  C   C16       1.0  0.9376020877184496  0.029456134788154564  0.48992050204465887  1.0000
  C   C17       1.0  0.9545937084246758  0.916297356488322  0.4280994857237159  1.0000
  C   C18       1.0  0.9376026599517175  0.7942195345032393  0.4898713909962733  1.0000
  C   C19       1.0  0.9025081665983536  0.7844408991749318  0.6107929201367677  1.0000
  C   C20       1.0  0.884966911170374  0.8987203236479496  0.6702987672154892  1.0000
  C   C21       1.0  0.9923668031316532  0.9243376011778565  0.30108950261143885  1.0000
  O   O1        1.0  0.03824085208728922  0.835415808094356  0.2780736371339374  1.0000
  C   C22       1.0  0.9781002747261204  0.03319520450626934  0.20019776179969173  1.0000
  C   C23       1.0  0.9069664779681136  0.09406333849270254  0.18468310774103736  1.0000
  C   C24       1.0  0.8938196444892952  0.19603007441480336  0.08814401046030018  1.0000
  N   N3        1.0  0.8214830874724174  0.25776508968918344  0.07347515266457116  1.0000
  C   C25       1.0  0.9518533191990892  0.23673560361854418  0.005786959817404069  1.0000
  C   C26       1.0  0.02230171113082524  0.17571735291435164  0.019412664788143186  1.0000
  C   C27       1.0  0.03539016499302616  0.07417637440426494  0.11564474978176809  1.0000
  H   H9        1.0  0.8370321823358241  0.21416845398368944  0.8399534273082099  1.0000
  H   H10       1.0  0.9525501888728203  0.12367467483288275  0.44441336217477523  1.0000
  H   H11       1.0  0.9511603580216835  0.7067588516340562  0.4428215368282533  1.0000
  H   H12       1.0  0.8578642088961227  0.8919496652706558  0.7634338188966061  1.0000
  H   H13       1.0  0.8364797383699378  0.5586402182264382  0.8394839854221439  1.0000
  H   H14       1.0  0.8614599325371163  0.06158598871360477  0.24646798750693732  1.0000
  H   H15       1.0  0.7778220295338539  0.22819981517333243  0.1343369307336315  1.0000
  H   H16       1.0  0.8110741175986632  0.33361341407578626  0.0017362943142527065  1.0000
  H   H17       1.0  0.9423993403396151  0.31530113787261627  0.9308450080735926  1.0000
  H   H18       1.0  0.06688821163776226  0.20717871863626036  0.9552513471717137  1.0000
  H   H19       1.0  0.0904869674193538  0.028391868505200257  0.12481127955107629  1.0000
  C   C28       1.0  0.9025418853560035  0.40313059790865124  0.22938923328361782  1.0000
  C   C29       1.0  0.9810142678243329  0.416171124262116  0.2307770807199614  1.0000
  C   C30       1.0  0.020498806004878523  0.4242218809137126  0.1141848343422982  1.0000
  C   C31       1.0  0.9808346908063964  0.4161109667935896  0.995529625518091  1.0000
  C   C32       1.0  0.902402670096517  0.402958472781781  0.9921475826840576  1.0000
  C   C33       1.0  0.8636888668443214  0.39688589037206357  0.10960433643408041  1.0000
  C   C34       1.0  0.10344826310193711  0.4366313204360899  0.11561943482261339  1.0000
  O   O2        1.0  0.14030043191999497  0.382321548478348  0.03153409720261857  1.0000
  C   C35       1.0  0.14458761429080424  0.5106671683667905  0.21236205375346584  1.0000
  C   C36       1.0  0.21787945526198604  0.4724284145342825  0.2540343710343562  1.0000
  C   C37       1.0  0.25801367023324384  0.541867353980318  0.34416409004478266  1.0000
  O   O3        1.0  0.3306948706438382  0.49846644716317234  0.3829358076443654  1.0000
  C   C38       1.0  0.3777700967638771  0.5593675646278133  0.47358644478562506  1.0000
  C   C39       1.0  0.22444072593884723  0.6519585609087903  0.3924773430939781  1.0000
  C   C40       1.0  0.1520261392740747  0.6915124748344172  0.3503365662870055  1.0000
  C   C41       1.0  0.11232550407628117  0.6218315274284398  0.26046863171296586  1.0000
  H   H20       1.0  0.754583081112752  0.37653116722627633  0.4342521435514306  1.0000
  H   H21       1.0  0.011611928715693942  0.4186297379315642  0.3228339857788012  1.0000
  H   H22       1.0  0.011259310964219171  0.42133699427052407  0.905593515515962  1.0000
  H   H23       1.0  0.8031923931679736  0.386831745810869  0.10773069196391938  1.0000
  H   H24       1.0  0.8723433286064864  0.3968208194497824  0.663478741551847  1.0000
  H   H25       1.0  0.2439249392253957  0.3875697622051957  0.2173982430225121  1.0000
  H   H26       1.0  0.431841890090789  0.5048860580658288  0.4861316496400274  1.0000
  H   H27       1.0  0.3506420697715078  0.5581282578115718  0.5695217762269622  1.0000
  H   H28       1.0  0.389329504141394  0.6611426313326114  0.43648462307179936  1.0000
  H   H29       1.0  0.2538853744460776  0.7077913444818058  0.4620818838550307  1.0000
  H   H30       1.0  0.12668625655085375  0.7768456065753455  0.38703544850323435  1.0000
  H   H31       1.0  0.05677517377406738  0.6557114673858986  0.2275858978724059  1.0000
  Zn  Zn1       1.0  0.8201540585030016  0.40475076023972156  0.6068277764906997  1.0000
  Zn  Zn2       1.0  0.9847833139202113  0.40133784705284836  0.6147081432016088  1.0000
  C   C42       1.0  0.9024268288888219  0.39781693432613574  0.8479695457856715  1.0000
  C   C43       1.0  0.9025123414117069  0.4082732744276212  0.373566587535173  1.0000
  C   C44       1.0  0.9024916852057313  0.6402580737332184  0.6056081747597548  1.0000
  C   C45       1.0  0.9024474287588449  0.16583057573430815  0.615928025012312  1.0000
  O   O4        1.0  0.964978370119102  0.4086983546554759  0.42494438243225763  1.0000
  O   O5        1.0  0.9649105957574358  0.39480055223746624  0.8025723929638269  1.0000
  O   O6        1.0  0.9649621256014911  0.590574855550335  0.6068638308855174  1.0000
  O   O7        1.0  0.9649267841168796  0.21292406182018797  0.6206528444448356  1.0000
  O   O8        1.0  0.8400105321264496  0.5931645466384576  0.60088307255146  1.0000
  O   O9        1.0  0.839959002438463  0.3973918037778943  0.7965915654825324  1.0000
  O   O10       1.0  0.8400267771308022  0.4112895612873897  0.41896199350766317  1.0000
  O   O11       1.0  0.8399751911068628  0.21551525914059622  0.614670552889959  1.0000
