data_image0
_chemical_formula_structural       NC8NC6H8C7OC3NC3H11C7OC3FC3H9Zn2C4O8
_chemical_formula_sum              "N3 C44 H28 O10 F1 Zn2"
_cell_length_a       17.457602349358154
_cell_length_b       10.298746005989749
_cell_length_c       10.29938172300155
_cell_angle_alpha    85.57926667056456
_cell_angle_beta     92.85910674266745
_cell_angle_gamma    91.69721484149154

_space_group_name_H-M_alt    "P 1"
_space_group_IT_number       1

loop_
  _space_group_symop_operation_xyz
  'x, y, z'

loop_
  _atom_site_type_symbol
  _atom_site_label
  _atom_site_symmetry_multiplicity
  _atom_site_fract_x
  _atom_site_fract_y
  _atom_site_fract_z
  _atom_site_occupancy
  N   N1        1.0  0.7227971499285878  0.4526049854630114  0.6266261016110142  1.0000
  C   C1        1.0  0.661716600523289  0.4066731431442743  0.6160074438961602  1.0000
  C   C2        1.0  0.5857298129636692  0.34953964860636755  0.6028073758918362  1.0000
  C   C3        1.0  0.5271923635179746  0.38972407414276544  0.6777065664971469  1.0000
  C   C4        1.0  0.452643758259473  0.334709179845571  0.6651210698502903  1.0000
  C   C5        1.0  0.3905148794332211  0.37713807583658543  0.7444421447229033  1.0000
  C   C6        1.0  0.315979431686199  0.39559379328155586  0.6886807784210058  1.0000
  C   C7        1.0  0.257441943444121  0.4355943052818323  0.763687908544405  1.0000
  C   C8        1.0  0.18146877369111342  0.4546553609456936  0.7057111577914643  1.0000
  N   N2        1.0  0.1203992610782923  0.4699740694976031  0.6590980008002891  1.0000
  C   C9        1.0  0.2729476775188592  0.45738239203967024  0.8949649308379783  1.0000
  C   C10       1.0  0.3466983930173944  0.4393157935083374  0.9511139153233523  1.0000
  C   C11       1.0  0.4052242161498829  0.39949546818824144  0.876564511331555  1.0000
  C   C12       1.0  0.4379214257769836  0.23883201652158803  0.5762034401251008  1.0000
  C   C13       1.0  0.4964471161365692  0.19892639698331727  0.5017042652505377  1.0000
  C   C14       1.0  0.5702108734272022  0.2540538170612028  0.5148397104619515  1.0000
  H   H1        1.0  0.5395323493803122  0.46494184938824046  0.7443412902653117  1.0000
  H   H2        1.0  0.3036502651275876  0.3805961588359488  0.5866569245021578  1.0000
  H   H3        1.0  0.22807971249393263  0.488282834853903  0.9538019095665793  1.0000
  H   H4        1.0  0.3585140614479377  0.45587112567303234  0.05276461998394666  1.0000
  H   H5        1.0  0.46170058360853355  0.38451416784743797  0.9226692103399641  1.0000
  H   H6        1.0  0.381434217182336  0.19348988335515171  0.5655487059548205  1.0000
  H   H7        1.0  0.48462125025113867  0.12482487207829007  0.43387131495411224  1.0000
  H   H8        1.0  0.615078712241336  0.2222837328633822  0.4565137897026228  1.0000
  C   C15       1.0  0.9215652131566873  0.07988598441478922  0.6428421876855044  1.0000
  C   C16       1.0  0.9574751781238665  0.08993026010795968  0.5232720576506094  1.0000
  C   C17       1.0  0.9748263598365838  0.9778503511190421  0.4620567465877563  1.0000
  C   C18       1.0  0.9574757616642638  0.8546936728590939  0.5232229687674395  1.0000
  C   C19       1.0  0.921638515675857  0.8426833902828003  0.6428937283445957  1.0000
  C   C20       1.0  0.9037259948000149  0.9558469092891435  0.7017744392661054  1.0000
  C   C21       1.0  0.013398951632292322  0.9882941303984644  0.3363928805408092  1.0000
  O   O1        1.0  0.06024619850547097  0.9023563533765668  0.3150068954757681  1.0000
  C   C22       1.0  0.9988279225877832  0.09617019831821971  0.2349983164934646  1.0000
  C   C23       1.0  0.9261841802613188  0.1523858541238945  0.21695824017229892  1.0000
  C   C24       1.0  0.9127566837834455  0.25344632309714354  0.11995591720735854  1.0000
  N   N3        1.0  0.8388846692969604  0.31045074307296283  0.10271889461686001  1.0000
  C   C25       1.0  0.9720206097011596  0.297900453476587  0.03966277195398016  1.0000
  C   C26       1.0  0.04396436856287678  0.241488990618699  0.0557896309968382  1.0000
  C   C27       1.0  0.0573322411914039  0.14085031498021805  0.15248288011134048  1.0000
  H   H9        1.0  0.854776834489711  0.26824911072862534  0.869720534438509  1.0000
  H   H10       1.0  0.972739748612148  0.18510231628925933  0.47829744356556714  1.0000
  H   H11       1.0  0.9713203940719766  0.7680949533476373  0.4766563242638322  1.0000
  H   H12       1.0  0.8760496768042921  0.9473526751869452  0.793943558622775  1.0000
  H   H13       1.0  0.8542126579350099  0.6126845697250134  0.869231492560504  1.0000
  H   H14       1.0  0.8797128975757657  0.11696769054109724  0.2771248334433698  1.0000
  H   H15       1.0  0.7942980253631359  0.27806470145493867  0.16202795526848823  1.0000
  H   H16       1.0  0.8282535653238841  0.3855838592313041  0.030613102188501662  1.0000
  H   H17       1.0  0.9623647100106241  0.3758115503732473  0.9643879187773963  1.0000
  H   H18       1.0  0.08949603957855468  0.27582991712379856  0.9932140177825404  1.0000
  H   H19       1.0  0.11359852590338382  0.09866798188634074  0.16360558703393036  1.0000
  C   C28       1.0  0.9216664463271674  0.46118634953692705  0.2615055663101957  1.0000
  C   C29       1.0  0.9459324750315742  0.3317808660337134  0.27234080523133497  1.0000
  C   C30       1.0  0.959005115047868  0.2670050007311344  0.16066512964387414  1.0000
  C   C31       1.0  0.9458591251170629  0.332070820759258  0.037068782286908686  1.0000
  C   C32       1.0  0.9215372667810765  0.461382969234144  0.024230383943326883  1.0000
  C   C33       1.0  0.9097750562575412  0.5253048714220399  0.13706571633538234  1.0000
  C   C34       1.0  0.9838518208779848  0.1299102499057514  0.17193138354830806  1.0000
  O   O2        1.0  0.9602149889873086  0.05562736821802772  0.0858153459287283  1.0000
  C   C35       1.0  0.03551856494092176  0.07708950849387675  0.2807928971241307  1.0000
  C   C36       1.0  0.02932546410466741  0.9448469210786047  0.3255523753834344  1.0000
  C   C37       1.0  0.07837884255698047  0.8937781513184179  0.4271118231170825  1.0000
  F   F1        1.0  0.07157286449190092  0.7664028803427243  0.47021719133872586  1.0000
  C   C38       1.0  0.13441863823688394  0.9738563895236849  0.4841611177832086  1.0000
  C   C39       1.0  0.1417164580821757  0.10494168581932617  0.43942673075406313  1.0000
  C   C40       1.0  0.09281525454815598  0.1564289085334667  0.33795071150669176  1.0000
  H   H20       1.0  0.8747464297291987  0.7047276837937098  0.44833369721420935  1.0000
  H   H21       1.0  0.9538759220741022  0.28073304172457103  0.3677920609914749  1.0000
  H   H22       1.0  0.9553634026366543  0.2819322380882907  0.9508161639649777  1.0000
  H   H23       1.0  0.8910673962284058  0.625066539511206  0.127908469731566  1.0000
  H   H24       1.0  0.911575565538961  0.5106932222912832  0.6918176277734798  1.0000
  H   H25       1.0  0.9861003821518344  0.8814371703518453  0.28264559002039147  1.0000
  H   H26       1.0  0.17241599830399945  0.9343043612487021  0.5626785587031078  1.0000
  H   H27       1.0  0.18554337116980602  0.16662984141276937  0.48302148683089063  1.0000
  H   H28       1.0  0.10036789476644548  0.25772631776096033  0.30331283863134706  1.0000
  Zn  Zn1       1.0  0.8375365289558946  0.4576138468358384  0.6360042883904162  1.0000
  Zn  Zn2       1.0  0.005659864977207496  0.4649545620754669  0.6497304456469668  1.0000
  C   C41       1.0  0.9215594960796111  0.45617160781349675  0.8800585560917018  1.0000
  C   C42       1.0  0.9216387338910134  0.46639852006003313  0.4056764554099259  1.0000
  C   C43       1.0  0.9216215960860257  0.6984969202240454  0.6377085924683166  1.0000
  C   C44       1.0  0.9215765763541548  0.2240716447176292  0.6480264834815126  1.0000
  O   O3        1.0  0.9854313626376513  0.47092786902036265  0.4592705275705533  1.0000
  O   O4        1.0  0.9853685892330896  0.4572127119592442  0.8368819457812657  1.0000
  O   O5        1.0  0.9854178754644416  0.6528934291473572  0.6411825653595593  1.0000
  O   O6        1.0  0.9853820190545741  0.2752471585933238  0.6549698059360751  1.0000
  O   O7        1.0  0.8578143175062859  0.6473212478143682  0.6307649234104127  1.0000
  O   O8        1.0  0.8577650314331355  0.45164209105449693  0.8264642346930222  1.0000
  O   O9        1.0  0.8578278051487621  0.46535720245517864  0.4488512551094064  1.0000
  O   O10       1.0  0.8577784615451678  0.26967648276345146  0.6445506308402187  1.0000
