data_image0
_chemical_formula_structural       NC10NC5H10C7OC3OC4H12C7OC3FC3H9Zn2C4O8
_chemical_formula_sum              "N2 C46 H31 O11 F1 Zn2"
_cell_length_a       19.4436361288709
_cell_length_b       10.299371110280156
_cell_length_c       10.29938172300155
_cell_angle_alpha    85.59389208423815
_cell_angle_beta     89.68829794462899
_cell_angle_gamma    89.43124194409341

_space_group_name_H-M_alt    "P 1"
_space_group_IT_number       1

loop_
  _space_group_symop_operation_xyz
  'x, y, z'

loop_
  _atom_site_type_symbol
  _atom_site_label
  _atom_site_symmetry_multiplicity
  _atom_site_fract_x
  _atom_site_fract_y
  _atom_site_fract_z
  _atom_site_occupancy
  N   N1        1.0  0.64803273409067  0.4089404514201973  0.5625773633675923  1.0000
  C   C1        1.0  0.5891966442415174  0.41884351124215913  0.5769647372853923  1.0000
  C   C2        1.0  0.5158671627196016  0.43119395869755195  0.5949612935901796  1.0000
  C   C3        1.0  0.47368835995713404  0.3991894054555749  0.5002765688155375  1.0000
  C   C4        1.0  0.3977844181154199  0.40962812072668786  0.5056082306680281  1.0000
  C   C5        1.0  0.35803214257571325  0.3848888828099264  0.6126721727271041  1.0000
  C   C6        1.0  0.2819132777350039  0.38880445323762847  0.5997141375327075  1.0000
  C   C7        1.0  0.24134825703027202  0.44647332327464206  0.6935046224436932  1.0000
  C   C8        1.0  0.1696862815405721  0.45011022343046236  0.682961970024687  1.0000
  C   C9        1.0  0.1375944975788498  0.39568226544152707  0.5789152233579948  1.0000
  C   C10       1.0  0.06380329927364221  0.3993803962926632  0.5682173099579897  1.0000
  N   N2        1.0  0.0044801808148757  0.40235349945457677  0.5596168968610298  1.0000
  C   C11       1.0  0.1774345081889183  0.3373063361561808  0.48550773056734187  1.0000
  C   C12       1.0  0.24911293023897163  0.33361519173639964  0.4957985869130088  1.0000
  C   C13       1.0  0.3861477639378523  0.3444387055007365  0.7437529172218185  1.0000
  C   C14       1.0  0.4448119101254775  0.38756435825982116  0.7910102312019447  1.0000
  C   C15       1.0  0.4890378472136701  0.48541649281364574  0.7166764113040145  1.0000
  H   H1        1.0  0.495792562268591  0.37006505784530197  0.4099597411253182  1.0000
  H   H2        1.0  0.373097489275473  0.43211526601025496  0.4124575998520932  1.0000
  H   H3        1.0  0.2652160782489615  0.4897706867164755  0.7743678271711749  1.0000
  H   H4        1.0  0.1393398277416776  0.49543067360185544  0.7558984038678009  1.0000
  H   H5        1.0  0.1530947954948159  0.2942046569731456  0.4049790760500156  1.0000
  H   H6        1.0  0.2787934388554781  0.2860514101359577  0.4235577154039549  1.0000
  H   H7        1.0  0.35516866134738995  0.28022686005675745  0.8079777693216912  1.0000
  H   H8        1.0  0.4599485307929568  0.3535050397826365  0.8889329723984871  1.0000
  H   H9        1.0  0.4589418692487898  0.576128646677484  0.6914556660948197  1.0000
  H   H10       1.0  0.5323199283382128  0.5110075392002147  0.7797701865809863  1.0000
  C   C16       1.0  0.8262133938444836  0.024276346518163017  0.5609827102790987  1.0000
  C   C17       1.0  0.8183095034359067  0.03367645533798358  0.42506564327771046  1.0000
  C   C18       1.0  0.8135460657047288  0.9212450898025015  0.35668747449234184  1.0000
  C   C19       1.0  0.8183435953442185  0.7984080208608648  0.4253764406295142  1.0000
  C   C20       1.0  0.8263061022446414  0.7870075133991806  0.5612227883182683  1.0000
  C   C21       1.0  0.8300148474708227  0.9005428039276256  0.6282790371194344  1.0000
  C   C22       1.0  0.805917408598603  0.9310296239558773  0.21300634285686848  1.0000
  O   O1        1.0  0.8341211218280541  0.8454540051150221  0.1487502864586765  1.0000
  C   C23       1.0  0.766285406825198  0.037813711435986885  0.1422259157940129  1.0000
  C   C24       1.0  0.7855295849775913  0.08258702460041478  0.014925770104757596  1.0000
  C   C25       1.0  0.7483382554074544  0.1822706094905735  0.945855080704046  1.0000
  O   O2        1.0  0.7703164805060543  0.22364101167889783  0.8195769199630463  1.0000
  C   C26       1.0  0.7375440608483713  0.32371181211491007  0.7384155528658538  1.0000
  C   C27       1.0  0.6906335905785367  0.2372100617919668  0.004821397080583045  1.0000
  C   C28       1.0  0.6706835179924998  0.19215958393025767  0.13061037324406066  1.0000
  C   C29       1.0  0.7079970179646573  0.09275485819815099  0.19892788362324798  1.0000
  H   H11       1.0  0.8421784628943071  0.21385735848528165  0.8172385613129278  1.0000
  H   H12       1.0  0.8166145507702555  0.12862925910208456  0.3720509380395933  1.0000
  H   H13       1.0  0.8151893536163446  0.7115930834710846  0.3726811181896612  1.0000
  H   H14       1.0  0.8361086105233282  0.8924921993868661  0.7330611331463104  1.0000
  H   H15       1.0  0.8299370546390594  0.4551700504411446  0.6132785799878167  1.0000
  H   H16       1.0  0.8300063831683233  0.04085800472885248  0.9691843320007085  1.0000
  H   H17       1.0  0.7656152659354241  0.33626131442868745  0.6443131799100952  1.0000
  H   H18       1.0  0.7385501820212015  0.4171613975448849  0.7854254277240842  1.0000
  H   H19       1.0  0.6836461955675893  0.296469658286322  0.7190993225699218  1.0000
  H   H20       1.0  0.6607662883367428  0.3142487965055041  0.9541818832947504  1.0000
  H   H21       1.0  0.6259469621285088  0.23405451033464386  0.17513225806105504  1.0000
  H   H22       1.0  0.6908248137571552  0.057947471788946325  0.2954474837247043  1.0000
  C   C30       1.0  0.8263176332529949  0.4055397141520758  0.17973456049058556  1.0000
  C   C31       1.0  0.8480673406234925  0.2746827459549288  0.18837397335230954  1.0000
  C   C32       1.0  0.8597845579634948  0.20912453400130637  0.07551662078737875  1.0000
  C   C33       1.0  0.8480015933169763  0.27497709634348966  0.9531085619440303  1.0000
  C   C34       1.0  0.8262018318662206  0.40574410067924793  0.9424709416772519  1.0000
  C   C35       1.0  0.815659372975883  0.4703694684330233  0.05637093911664026  1.0000
  C   C36       1.0  0.8820545653978156  0.07054393714984308  0.08453332903825705  1.0000
  O   O3        1.0  0.8608617240289034  0.9976911382873189  0.0005049587966501345  1.0000
  C   C37       1.0  0.928371484356756  0.014614676589480347  0.18877647716104118  1.0000
  C   C38       1.0  0.9228147465053196  0.8827559250820465  0.23405410996518228  1.0000
  C   C39       1.0  0.9667888678680647  0.8287359433163484  0.33122855951205765  1.0000
  F   F1        1.0  0.9606828630414768  0.7017810382358542  0.3749079502046828  1.0000
  C   C40       1.0  0.01703088958634935  0.9054314269467684  0.3833037160559425  1.0000
  C   C41       1.0  0.023577957499551827  0.036066424400750474  0.3379524191850025  1.0000
  C   C42       1.0  0.979740274427035  0.09049565703150497  0.24084794234806295  1.0000
  H   H23       1.0  0.7842628590742067  0.6518881335056426  0.3708067641963664  1.0000
  H   H24       1.0  0.8551867665391072  0.22316048432824132  0.28310420763966637  1.0000
  H   H25       1.0  0.8565203223442697  0.22426996632107166  0.8659960437658416  1.0000
  H   H26       1.0  0.7988916464518258  0.5712501447835621  0.048906542794250774  1.0000
  H   H27       1.0  0.8172729971535238  0.4556505269111699  0.6109586420007056  1.0000
  H   H28       1.0  0.8840615937437376  0.8219555219390818  0.19498359811638055  1.0000
  H   H29       1.0  0.051093793855408354  0.8635933524401026  0.45842448422892335  1.0000
  H   H30       1.0  0.06287058575795945  0.09510911301265201  0.3776568226423842  1.0000
  H   H31       1.0  0.9865147331361714  0.19132982893317796  0.20556283204343195  1.0000
  Zn  Zn1       1.0  0.7508957672313893  0.4070361299977112  0.5617305477155843  1.0000
  Zn  Zn2       1.0  0.9016171362787513  0.40424721601061275  0.5604743903336327  1.0000
  C   C43       1.0  0.8262215759384764  0.400531822295108  0.7982958001279383  1.0000
  C   C44       1.0  0.8262929736241351  0.41075313191921614  0.3239092521860214  1.0000
  C   C45       1.0  0.8262858179295983  0.6428337566517766  0.5560022615601474  1.0000
  C   C46       1.0  0.8262286800021975  0.16844963822341685  0.5662028599298599  1.0000
  O   O4        1.0  0.8834826710012695  0.4114387584574726  0.3718188888079228  1.0000
  O   O5        1.0  0.8834259101508771  0.3977284947447739  0.7494323949649679  1.0000
  O   O6        1.0  0.8834770151101323  0.5933903856933376  0.5537786551558095  1.0000
  O   O7        1.0  0.8834315146269307  0.21577687772474152  0.5674725316741667  1.0000
  O   O8        1.0  0.769081337449405  0.5955064692367138  0.5547324067968846  1.0000
  O   O9        1.0  0.7690302326871611  0.3998461385804122  0.7503860778518299  1.0000
  O   O10       1.0  0.7690869938148058  0.41355635661763324  0.3727710102824833  1.0000
  O   O11       1.0  0.7690358374217457  0.2178944666222009  0.5684247505134759  1.0000
