data_image0
_chemical_formula_structural       NC10NC5H10C7OC6H10C7OC3OC4H12Zn2C4O8
_chemical_formula_sum              "N2 C46 H32 O11 Zn2"
_cell_length_a       19.4436361288709
_cell_length_b       10.299379429549807
_cell_length_c       10.299374482448636
_cell_angle_alpha    85.52536088050722
_cell_angle_beta     89.68637327173957
_cell_angle_gamma    89.41578640036583

_space_group_name_H-M_alt    "P 1"
_space_group_IT_number       1

loop_
  _space_group_symop_operation_xyz
  'x, y, z'

loop_
  _atom_site_type_symbol
  _atom_site_label
  _atom_site_symmetry_multiplicity
  _atom_site_fract_x
  _atom_site_fract_y
  _atom_site_fract_z
  _atom_site_occupancy
  N   N1        1.0  0.647855762680918  0.40973072214934825  0.5615291701018703  1.0000
  C   C1        1.0  0.5890180558238763  0.41962722929758756  0.5759101392221597  1.0000
  C   C2        1.0  0.5156865568595528  0.4319694782064689  0.5938987099886277  1.0000
  C   C3        1.0  0.4735137140775734  0.4000099240993362  0.49923278998881404  1.0000
  C   C4        1.0  0.3976082175877066  0.4104465937961266  0.5045573140608339  1.0000
  C   C5        1.0  0.35785780281693014  0.3856530286191038  0.6116428774170692  1.0000
  C   C6        1.0  0.2817385827163826  0.38957522641259734  0.5986815768742502  1.0000
  C   C7        1.0  0.24116399315261128  0.44720099045403816  0.6924351578691277  1.0000
  C   C8        1.0  0.1695016649379476  0.4508433081425727  0.681889531188475  1.0000
  C   C9        1.0  0.1374191486405111  0.396463709711679  0.5778770041523014  1.0000
  C   C10       1.0  0.063627591333124  0.4001673383128723  0.5671760672901001  1.0000
  N   N2        1.0  0.0043041842531879  0.4031448613042201  0.5585732234939926  1.0000
  C   C11       1.0  0.1772688220755711  0.33813065710747336  0.4845069280003662  1.0000
  C   C12       1.0  0.2489476083433406  0.3344342165667953  0.49480078689034146  1.0000
  C   C13       1.0  0.3859771366324847  0.3451357627232312  0.7427572454958553  1.0000
  C   C14       1.0  0.44463447567764425  0.3882404915146225  0.7899860627865807  1.0000
  C   C15       1.0  0.48884773350051847  0.48613490655221914  0.7155804471624712  1.0000
  H   H1        1.0  0.4956234032837006  0.3709285791417867  0.4089329115142133  1.0000
  H   H2        1.0  0.3729195338858042  0.4329810607735445  0.4113871939964806  1.0000
  H   H3        1.0  0.265024470993605  0.4904608261111305  0.7732710660151971  1.0000
  H   H4        1.0  0.13914770297123452  0.4961302636206395  0.7547969329053452  1.0000
  H   H5        1.0  0.1529364200414527  0.2950663513837508  0.4040054454812281  1.0000
  H   H6        1.0  0.2786359311753724  0.2869034589611601  0.4225905538313719  1.0000
  H   H7        1.0  0.3550061190150136  0.280888536321092  0.8070298180332962  1.0000
  H   H8        1.0  0.4597744119073587  0.35413083789608857  0.8879366259587567  1.0000
  H   H9        1.0  0.4587393358180855  0.5768646574943292  0.6902948622655749  1.0000
  H   H10       1.0  0.532125241207131  0.511696208596621  0.7786586900866794  1.0000
  C   C16       1.0  0.8260907418332016  0.025045656688237328  0.5602052025816313  1.0000
  C   C17       1.0  0.8677648923399751  0.014361717130050522  0.6716085816712363  1.0000
  C   C18       1.0  0.8881392846976653  0.8917455090337885  0.7286537690352433  1.0000
  C   C19       1.0  0.8676812210613984  0.7791412532513607  0.6713329848588623  1.0000
  C   C20       1.0  0.8260757850111213  0.7878198279413428  0.5599084101770286  1.0000
  C   C21       1.0  0.8053724610486956  0.9112441617442233  0.5051892139255836  1.0000
  C   C22       1.0  0.9327415431010098  0.8803700358165857  0.8454848926090788  1.0000
  O   O1        1.0  0.9763735488588307  0.7887746413989731  0.8574796351361502  1.0000
  C   C23       1.0  0.9278422519133498  0.9728028516589521  0.9487133668255687  1.0000
  C   C24       1.0  0.9866615350680409  0.0011646165755501148  0.019790388929014635  1.0000
  C   C25       1.0  0.9823850503283416  0.08698088509983903  0.11832106637803652  1.0000
  C   C26       1.0  0.9193764641472257  0.14443214539149984  0.14760266164724478  1.0000
  C   C27       1.0  0.8604513594996838  0.11576295866533126  0.07877068303477286  1.0000
  C   C28       1.0  0.8644516593185573  0.030031465752070385  0.9801546263384757  1.0000
  H   H11       1.0  0.7483172136281311  0.25260146331095434  0.34881241092827486  1.0000
  H   H12       1.0  0.8850588982486547  0.10162067280808951  0.7133034151544757  1.0000
  H   H13       1.0  0.8837748729136059  0.6845326421237753  0.7146380200453071  1.0000
  H   H14       1.0  0.7732451554977576  0.9186765753017755  0.41930499660107867  1.0000
  H   H15       1.0  0.810571653674147  0.4637375267183994  0.5164680957009691  1.0000
  H   H16       1.0  0.036006095800608984  0.9578125363041291  0.9983332341520137  1.0000
  H   H17       1.0  0.027968251817787726  0.10889657691693899  0.17204073057548652  1.0000
  H   H18       1.0  0.916159993994259  0.2107446787816638  0.22397260415093145  1.0000
  H   H19       1.0  0.8115490367279504  0.1595451593388617  0.10222405546135926  1.0000
  H   H20       1.0  0.8179180741676034  0.007447725282814677  0.9296026828747241  1.0000
  C   C29       1.0  0.8261469746091727  0.4065190561092802  0.17867371221520112  1.0000
  C   C30       1.0  0.897988652231148  0.41985687834044483  0.1757008725967344  1.0000
  C   C31       1.0  0.9341366958157202  0.4280571871309362  0.05691381480340607  1.0000
  C   C32       1.0  0.8978242521939532  0.4197960412834607  0.9404634100209193  1.0000
  C   C33       1.0  0.8260195384236524  0.40634640722856386  0.9414398645290705  1.0000
  C   C34       1.0  0.7905769090462456  0.4001271470819794  0.06104777115474391  1.0000
  C   C35       1.0  0.010077292777455282  0.440780917976054  0.05373955469479341  1.0000
  O   O2        1.0  0.04382194513478943  0.3866122501952516  0.9676334334225443  1.0000
  C   C36       1.0  0.047733371535007896  0.5149709692382058  0.14816596000051474  1.0000
  C   C37       1.0  0.11483758254418852  0.47701112615801833  0.18578806389513858  1.0000
  C   C38       1.0  0.15157392496329813  0.5466005700225314  0.273659409432611  1.0000
  O   O3        1.0  0.21811962819526176  0.5034763851416248  0.3084171144539718  1.0000
  C   C39       1.0  0.26121151013734845  0.5645545419848192  0.3964280108568794  1.0000
  C   C40       1.0  0.1208255687615083  0.6565617360333238  0.32378646908575104  1.0000
  C   C41       1.0  0.0545243627409886  0.6958400339246116  0.2856466329038494  1.0000
  C   C42       1.0  0.018184996993164892  0.62601023246897  0.19801311863374016  1.0000
  H   H21       1.0  0.6906905033830222  0.3793591268944698  0.3917595508457903  1.0000
  H   H22       1.0  0.926001171013802  0.4224314771867066  0.2660586514584271  1.0000
  H   H23       1.0  0.9256780559491877  0.42513732950850347  0.8488365366783173  1.0000
  H   H24       1.0  0.7351922244559853  0.38984380914053784  0.0625358981927926  1.0000
  H   H25       1.0  0.7985002511227632  0.4000949009657788  0.6144419240107228  1.0000
  H   H26       1.0  0.13869172719433753  0.3922533444856606  0.14774456076034448  1.0000
  H   H27       1.0  0.3107210959882516  0.5102794515577134  0.405996901843364  1.0000
  H   H28       1.0  0.23637538255422386  0.5632123790164778  0.4938693739621407  1.0000
  H   H29       1.0  0.27178361650453975  0.6663709430396831  0.3586390915925206  1.0000
  H   H30       1.0  0.14777683558922639  0.7125048174709561  0.39173195334311117  1.0000
  H   H31       1.0  0.031316160141896754  0.781074959411652  0.32371352011930976  1.0000
  H   H32       1.0  0.9673239597325792  0.65967865606347  0.16819798200005542  1.0000
  Zn  Zn1       1.0  0.7507190775169972  0.4078267116913281  0.5606836615321669  1.0000
  Zn  Zn2       1.0  0.9014408593558935  0.4050382610174659  0.5594294177683121  1.0000
  C   C43       1.0  0.8260422001426394  0.40120508701064117  0.7972627908598167  1.0000
  C   C44       1.0  0.8261193825539844  0.41166149393859297  0.322850401577951  1.0000
  C   C45       1.0  0.8260759327968964  0.643640502191932  0.5547891825684312  1.0000
  C   C46       1.0  0.826085598487957  0.16922451929580795  0.565324080145654  1.0000
  O   O4        1.0  0.8833082532340374  0.4123234744668034  0.37076143883116175  1.0000
  O   O5        1.0  0.8832476744953469  0.398425757243948  0.7483994381323444  1.0000
  O   O6        1.0  0.8832741427565042  0.5941954349765624  0.5526002897871263  1.0000
  O   O7        1.0  0.8832817335578315  0.21655380699852356  0.5665604902224639  1.0000
  O   O8        1.0  0.7688781518811133  0.5963111666632472  0.5535525894991948  1.0000
  O   O9        1.0  0.7688516835977806  0.40054304934510343  0.7493516679892758  1.0000
  O   O10       1.0  0.7689122626439591  0.4144407216618031  0.3717121072465648  1.0000
  O   O11       1.0  0.7688857429488559  0.21867104488216538  0.5675112560129632  1.0000
