data_image0
_chemical_formula_structural       NC10NC3NH7C7OC6H10C7OC3OC4H12Zn2C4O8
_chemical_formula_sum              "N3 C44 H29 O11 Zn2"
_cell_length_a       19.210446455230148
_cell_length_b       10.299379429549807
_cell_length_c       10.299374482448636
_cell_angle_alpha    85.52536088050722
_cell_angle_beta     89.97251480092041
_cell_angle_gamma    89.94476483549958

_space_group_name_H-M_alt    "P 1"
_space_group_IT_number       1

loop_
  _space_group_symop_operation_xyz
  'x, y, z'

loop_
  _atom_site_type_symbol
  _atom_site_label
  _atom_site_symmetry_multiplicity
  _atom_site_fract_x
  _atom_site_fract_y
  _atom_site_fract_z
  _atom_site_occupancy
  N   N1        1.0  0.6556789356682754  0.4206119939900248  0.5667882987947972  1.0000
  C   C1        1.0  0.5954501242213226  0.42281954833150226  0.5670186997225912  1.0000
  C   C2        1.0  0.5206453597253576  0.4255565115240705  0.5673041370126661  1.0000
  C   C3        1.0  0.4850201712544667  0.5417883160238071  0.5823766664248706  1.0000
  C   C4        1.0  0.4123546836171983  0.5419398732746252  0.5823240156223235  1.0000
  C   C5        1.0  0.3754785185309231  0.42626548772621087  0.5673903805467688  1.0000
  C   C6        1.0  0.2981565544339377  0.42490899022800566  0.5672402474887661  1.0000
  C   C7        1.0  0.2604008621916519  0.5285002548677322  0.5038411054985095  1.0000
  C   C8        1.0  0.1876226706315829  0.5270979896404973  0.503732507115003  1.0000
  C   C9        1.0  0.1515987407420044  0.42236199391217966  0.5669719643134903  1.0000
  C   C10       1.0  0.0766693781312602  0.4210598893537234  0.5668355763792927  1.0000
  N   N2        1.0  0.0164316523977371  0.420012953069125  0.5667259553722797  1.0000
  C   C11       1.0  0.1886307659657383  0.3188964337118092  0.630346054105746  1.0000
  C   C12       1.0  0.2614108278917314  0.32002440599646786  0.6305049936402047  1.0000
  C   C13       1.0  0.4137133345423227  0.31185394623134366  0.5526054024587299  1.0000
  N   N3        1.0  0.48448299928755123  0.3142989868388937  0.5527701346262914  1.0000
  H   H1        1.0  0.5131099078379342  0.6312227977299347  0.594394894840705  1.0000
  H   H2        1.0  0.3850743362476792  0.6319558889017696  0.595736811440138  1.0000
  H   H3        1.0  0.2871268711937794  0.6097702458783529  0.45282113346697916  1.0000
  H   H4        1.0  0.1594748818024515  0.6075398985727836  0.4540432523816411  1.0000
  H   H5        1.0  0.1612653398356253  0.2374911108468023  0.6799361504446746  1.0000
  H   H6        1.0  0.2889135226783096  0.23970132009100764  0.6816319781167577  1.0000
  H   H7        1.0  0.3874595864011291  0.22097498353325062  0.5391466531664595  1.0000
  C   C14       1.0  0.8360661887596474  0.03892053199961221  0.5669111976095338  1.0000
  C   C15       1.0  0.8782435748742458  0.028936544169132494  0.678652876878451  1.0000
  C   C16       1.0  0.8988639979151655  0.9066625407959024  0.7358634583897694  1.0000
  C   C17       1.0  0.8781588932243425  0.7937146749623131  0.6783766008438687  1.0000
  C   C18       1.0  0.8360510513266765  0.8016944520405558  0.5666142837892447  1.0000
  C   C19       1.0  0.8150977246721373  0.9247710564428231  0.5117270232071847  1.0000
  C   C20       1.0  0.9440048502513203  0.8960361992934298  0.8530566517798364  1.0000
  O   O1        1.0  0.988163733670021  0.8051736403971684  0.8654055878583571  1.0000
  C   C21       1.0  0.9390463977430634  0.9883867274997041  0.9562453547936234  1.0000
  C   C22       1.0  0.9985759523094145  0.01773641078694621  0.027799856912768983  1.0000
  C   C23       1.0  0.9942478269394645  0.1034808522230839  0.1262958189437996  1.0000
  C   C24       1.0  0.9304783814779684  0.15987383134472566  0.1550659264983436  1.0000
  C   C25       1.0  0.8708417275728443  0.13021494888866658  0.08575560883814415  1.0000
  C   C26       1.0  0.8748903329549113  0.044550644310033416  0.9871720255607304  1.0000
  H   H8        1.0  0.7573535074281655  0.2651700680739191  0.35488706018865557  1.0000
  H   H9        1.0  0.8957464143036896  0.11648596693930302  0.7204880987134339  1.0000
  H   H10       1.0  0.89444688373909  0.699376369990512  0.7218122802124067  1.0000
  H   H11       1.0  0.782582466302963  0.9316638654072765  0.42558200456827944  1.0000
  H   H12       1.0  0.8203597000737041  0.47735174614507686  0.5230481107090486  1.0000
  H   H13       1.0  0.04851637257867725  0.9752131131089956  0.006743268758984566  1.0000
  H   H14       1.0  0.04038146772591378  0.12616215150305843  0.18038551600454733  1.0000
  H   H15       1.0  0.9272230708857173  0.22613234146594952  0.23140975851348344  1.0000
  H   H16       1.0  0.8213488855025811  0.17317579472000544  0.10881200461706542  1.0000
  H   H17       1.0  0.8277948321626557  0.02118533390049726  0.9362423342602701  1.0000
  C   C27       1.0  0.8361231005736995  0.4203948758965046  0.18538016372651  1.0000
  C   C28       1.0  0.9088323013452922  0.43493933835335796  0.1829905166176944  1.0000
  C   C29       1.0  0.9454168501126637  0.44374678334824846  0.06449689946989223  1.0000
  C   C30       1.0  0.9086659160978021  0.434875740062163  0.947751719484093  1.0000
  C   C31       1.0  0.8359941255343457  0.4202200866199519  0.9481452815457616  1.0000
  C   C32       1.0  0.800123509193299  0.41340553828235427  0.06746547389944957  1.0000
  C   C33       1.0  0.022274466665822112  0.45774599914987024  0.061939105858060506  1.0000
  O   O2        1.0  0.05642660208959871  0.4041441006356554  0.9761069151111967  1.0000
  C   C34       1.0  0.06038526086331619  0.5325685153108741  0.15667119365618998  1.0000
  C   C35       1.0  0.12829978781185392  0.4957357427974802  0.19483803250859832  1.0000
  C   C36       1.0  0.16547973940791727  0.5659422038305066  0.2830075943522594  1.0000
  O   O3        1.0  0.2328290143265701  0.5239357089176564  0.3183055005069866  1.0000
  C   C37       1.0  0.2764412516721324  0.5857376294572609  0.4066662058732593  1.0000
  C   C38       1.0  0.13436008187101534  0.6753869258397807  0.33288504665191665  1.0000
  C   C39       1.0  0.06725825658638263  0.713551640295323  0.2942069941029717  1.0000
  C   C40       1.0  0.03048007534771613  0.6431114892217604  0.20627848608256194  1.0000
  H   H18       1.0  0.6990309266684929  0.3909598435323589  0.39736640109474464  1.0000
  H   H19       1.0  0.9371830848974707  0.43798443055535485  0.2735756939988996  1.0000
  H   H20       1.0  0.9368560680615196  0.44068485589315887  0.8563509562526823  1.0000
  H   H21       1.0  0.7440700276371726  0.4021919688857767  0.06850400212144048  1.0000
  H   H22       1.0  0.8081425294736289  0.413506371230951  0.6209239464359171  1.0000
  H   H23       1.0  0.15244198284422295  0.4113786111577642  0.1569881712672645  1.0000
  H   H24       1.0  0.3265486898181842  0.5322940933565894  0.4166370031149975  1.0000
  H   H25       1.0  0.251305215785939  0.5839783232430475  0.5039059555967811  1.0000
  H   H26       1.0  0.28714102135840736  0.687731597757701  0.36896310828579715  1.0000
  H   H27       1.0  0.16163679833546918  0.731782676031318  0.40104931445470315  1.0000
  H   H28       1.0  0.04376980366906125  0.7983967648791968  0.33208548301863927  1.0000
  H   H29       1.0  0.9790048663598321  0.6759256597488168  0.17605047245400085  1.0000
  Zn  Zn1       1.0  0.7597843749900358  0.420435657739197  0.5667778085141424  1.0000
  Zn  Zn2       1.0  0.91232619554775  0.42017870369617993  0.5667470859307395  1.0000
  C   C41       1.0  0.8360170609045958  0.4150791470242894  0.803968391838592  1.0000
  C   C42       1.0  0.836095175331044  0.42553685029449473  0.32955662910395755  1.0000
  C   C43       1.0  0.8360512008970362  0.6575151287733287  0.5614950573803348  1.0000
  C   C44       1.0  0.8360609833060111  0.18309930822045772  0.572030033421185  1.0000
  O   O4        1.0  0.893974629400261  0.427159365071186  0.3779319110981041  1.0000
  O   O5        1.0  0.8939133191438786  0.4132606303784534  0.7555694186364572  1.0000
  O   O6        1.0  0.8939401070221448  0.6090307526673431  0.5597704851538674  1.0000
  O   O7        1.0  0.8939477894860849  0.23138925218307338  0.5737307472094038  1.0000
  O   O8        1.0  0.7781627289966652  0.6092251093414052  0.5597941472391299  1.0000
  O   O9        1.0  0.7781359410959559  0.4134565474666134  0.7555930108664026  1.0000
  O   O10       1.0  0.7781972516635393  0.42735523725835556  0.3779539418890172  1.0000
  O   O11       1.0  0.7781704117302374  0.23158511505856638  0.5737528753752599  1.0000
