data_image0
_chemical_formula_structural       NC8NC6H8C7OC3FC3H9C7OC6OCH12Zn2C4O8
_chemical_formula_sum              "N2 C45 H29 O11 F1 Zn2"
_cell_length_a       17.457602349358154
_cell_length_b       10.29937835083307
_cell_length_c       10.299362532796529
_cell_angle_alpha    85.57000454149363
_cell_angle_beta     92.89066602148195
_cell_angle_gamma    91.70902404556999

_space_group_name_H-M_alt    "P 1"
_space_group_IT_number       1

loop_
  _space_group_symop_operation_xyz
  'x, y, z'

loop_
  _atom_site_type_symbol
  _atom_site_label
  _atom_site_symmetry_multiplicity
  _atom_site_fract_x
  _atom_site_fract_y
  _atom_site_fract_z
  _atom_site_occupancy
  N   N1        1.0  0.7225172212793461  0.4524576446015771  0.6262968908910589  1.0000
  C   C1        1.0  0.6614278844021771  0.40652694219506214  0.6156873145785855  1.0000
  C   C2        1.0  0.5854301690042951  0.34939486610133064  0.6024985429104732  1.0000
  C   C3        1.0  0.526921820564987  0.389582566387656  0.6773914010367394  1.0000
  C   C4        1.0  0.4523627335164148  0.33456904608162175  0.66481678491467  1.0000
  C   C5        1.0  0.3902646589338384  0.37700141525727027  0.7441311794731118  1.0000
  C   C6        1.0  0.3157131505094962  0.39545276606343926  0.6883646888074102  1.0000
  C   C7        1.0  0.2572047771935114  0.4354565671746573  0.7633655265121886  1.0000
  C   C8        1.0  0.18121489385744263  0.4545130878138466  0.7053834738208011  1.0000
  N   N2        1.0  0.1201319428337639  0.46982815047010873  0.6587660553725296  1.0000
  C   C9        1.0  0.2727558810296287  0.4572523330937839  0.8946413437648602  1.0000
  C   C10       1.0  0.3465228287984055  0.4391901109259275  0.9507953829955307  1.0000
  C   C11       1.0  0.40501970727145986  0.3993665191147544  0.8762522460231537  1.0000
  C   C12       1.0  0.4376002720259464  0.23868991572141396  0.5759164708450271  1.0000
  C   C13       1.0  0.49609702423705204  0.1987810363633682  0.5014235815730153  1.0000
  C   C14       1.0  0.5698714558439248  0.25390711377252906  0.5145481368891418  1.0000
  H   H1        1.0  0.5392922692198331  0.4648016814592748  0.7440124635244931  1.0000
  H   H2        1.0  0.303348948408769  0.3804490864843171  0.5863413777707163  1.0000
  H   H3        1.0  0.2279106990587709  0.48815537495360517  0.9534734835628844  1.0000
  H   H4        1.0  0.3583735914654605  0.45575140182097607  0.05244521877170405  1.0000
  H   H5        1.0  0.4615093862871575  0.3843888181096413  0.9223611253637709  1.0000
  H   H6        1.0  0.38110433251082  0.1933488966061332  0.5652706972454313  1.0000
  H   H7        1.0  0.484240433822655  0.12467804910637459  0.43360403606461406  1.0000
  H   H8        1.0  0.6147165776399526  0.2221344984787872  0.4562272445037403  1.0000
  C   C15       1.0  0.9212473924662157  0.0797545599370919  0.6425891854079733  1.0000
  C   C16       1.0  0.8411962456089807  0.07626019726869315  0.6200275224952965  1.0000
  C   C17       1.0  0.8007234790072318  0.957206126641164  0.6101174503635363  1.0000
  C   C18       1.0  0.841383846910871  0.8410243921135182  0.6200497172031838  1.0000
  C   C19       1.0  0.9214090884411593  0.8425215617092718  0.642485596436944  1.0000
  C   C20       1.0  0.9608542104373562  0.9623854972460314  0.6539655145649381  1.0000
  C   C21       1.0  0.7162895814286606  0.9534824135127288  0.5849284242142156  1.0000
  O   O1        1.0  0.6866447946795605  0.8674767729092789  0.5158470005073572  1.0000
  C   C22       1.0  0.6654859284924668  0.04722785483783687  0.6381184057685305  1.0000
  C   C23       1.0  0.5971326411395981  0.08422059363659096  0.5687561882041188  1.0000
  C   C24       1.0  0.5484045862684539  0.1713650334816612  0.6188376618640319  1.0000
  F   F1        1.0  0.482932082388715  0.20717601898537819  0.550772043055453  1.0000
  C   C25       1.0  0.5670968473125513  0.221514230592754  0.7389684919198269  1.0000
  C   C26       1.0  0.6343488807806308  0.18422140052034064  0.8094553375065277  1.0000
  C   C27       1.0  0.6832356402387382  0.0971556241430882  0.7597915335729464  1.0000
  H   H9        1.0  0.07244696041245047  0.29382877112262706  0.6831805401327553  1.0000
  H   H10       1.0  0.8103248213684034  0.16642029889770282  0.608693479944084  1.0000
  H   H11       1.0  0.8103233281767861  0.7491970448011537  0.611461043231313  1.0000
  H   H12       1.0  0.02256769562210237  0.9642753876234578  0.6713581379228308  1.0000
  H   H13       1.0  0.9522231671734916  0.5157276928984545  0.6500142596557532  1.0000
  H   H14       1.0  0.5818320496040009  0.04652247128059783  0.4753488786837494  1.0000
  H   H15       1.0  0.5293549482460318  0.2888660778091656  0.7777652414883804  1.0000
  H   H16       1.0  0.6484633916436188  0.2223549345953908  0.9029793609424397  1.0000
  H   H17       1.0  0.7343747907066078  0.06784387306499395  0.8171194217756337  1.0000
  C   C28       1.0  0.9212683463461396  0.46101489237451565  0.26116563606563403  1.0000
  C   C29       1.0  0.8484273866845499  0.3991497889545945  0.2585140954301821  1.0000
  C   C30       1.0  0.8113579940132981  0.36925571493551357  0.13997803187805236  1.0000
  C   C31       1.0  0.8486434794002152  0.39932279358029277  0.023277416627097258  1.0000
  C   C32       1.0  0.9213881606795438  0.461261190470176  0.023909158257673813  1.0000
  C   C33       1.0  0.9572178984571673  0.4920027419738888  0.14335269990062738  1.0000
  C   C34       1.0  0.7348296429099771  0.3026122862586045  0.13954124159178227  1.0000
  O   O2        1.0  0.7191378581882658  0.22271705876231151  0.23416854432015288  1.0000
  C   C35       1.0  0.676105867031126  0.32659910200115405  0.031826990289817836  1.0000
  C   C36       1.0  0.6702320717438414  0.4497198922722194  0.9634750465907365  1.0000
  C   C37       1.0  0.614080148221721  0.47144735513964897  0.8631903982913052  1.0000
  C   C38       1.0  0.5624502832557163  0.37152368493344223  0.8299404562864368  1.0000
  C   C39       1.0  0.5675172669220276  0.24856120982732444  0.8991447022441217  1.0000
  C   C40       1.0  0.6236622880669922  0.2267062413089569  0.9995012113838184  1.0000
  O   O3        1.0  0.5072262295485824  0.39827185969460976  0.7284418534462231  1.0000
  C   C41       1.0  0.4512677959643713  0.3060624476200762  0.6845134220219404  1.0000
  H   H18       1.0  0.05885005465079063  0.5772685904655079  0.4734879684308295  1.0000
  H   H19       1.0  0.8200158143927582  0.3751667511904109  0.3487315732770506  1.0000
  H   H20       1.0  0.8212117232906277  0.37304333483226415  0.9319871107461131  1.0000
  H   H21       1.0  0.013335314309087298  0.5397795318377832  0.1445728423603423  1.0000
  H   H22       1.0  0.9494231677452823  0.4845448355434172  0.6967259183619077  1.0000
  H   H23       1.0  0.7084900415266739  0.5296450476440353  0.9884114109352717  1.0000
  H   H24       1.0  0.6104448579538835  0.5667516720550623  0.8113152876947454  1.0000
  H   H25       1.0  0.5283781484306642  0.1692833753093257  0.8762330541365602  1.0000
  H   H26       1.0  0.6265521225341274  0.13118748241799794  0.051202283852479935  1.0000
  H   H27       1.0  0.4152406979126744  0.35318552685759963  0.6034805997083099  1.0000
  H   H28       1.0  0.4137968087089274  0.27221119186891896  0.7650081518886687  1.0000
  H   H29       1.0  0.47984979659296195  0.221987801558162  0.6482046616860018  1.0000
  Zn  Zn1       1.0  0.837260241440904  0.45746691691198427  0.6356742893851954  1.0000
  Zn  Zn2       1.0  0.0053889078348186015  0.46480823322711506  0.6493992909311546  1.0000
  C   C42       1.0  0.921362694261729  0.45604062654082167  0.879734848912497  1.0000
  C   C43       1.0  0.9212882913412376  0.4662362425100335  0.4053390085252857  1.0000
  C   C44       1.0  0.921373774373484  0.6983404971378342  0.6373296404905784  1.0000
  C   C45       1.0  0.9212771535389861  0.22393480904767626  0.6477442817148855  1.0000
  O   O4        1.0  0.9850989365491447  0.4707689005630571  0.45893347669053197  1.0000
  O   O5        1.0  0.9851578163478377  0.4570788778109962  0.8365569656299647  1.0000
  O   O6        1.0  0.9851659037825095  0.652739050497761  0.6408129743738082  1.0000
  O   O7        1.0  0.9850907917302231  0.27510873463045127  0.6546773658866205  1.0000
  O   O8        1.0  0.8575583001714362  0.6471664130048287  0.6303962097392284  1.0000
  O   O9        1.0  0.8575502130531978  0.45150780067958873  0.8261401315372028  1.0000
  O   O10       1.0  0.8574913330506888  0.46519777767136716  0.4485150811957779  1.0000
  O   O11       1.0  0.857483188241954  0.26953760248078273  0.6442590677614337  1.0000
