data_image0
_chemical_formula_structural       NC9NC5H8C6SCOC6H10C6SCOC6H10Zn2C4O8
_chemical_formula_sum              "N2 C44 H28 S2 O10 Zn2"
_cell_length_a       17.807436237873137
_cell_length_b       10.302038109246572
_cell_length_c       10.302041481415108
_cell_angle_alpha    85.54819663174399
_cell_angle_beta     89.38796050765288
_cell_angle_gamma    88.4085403614985

_space_group_name_H-M_alt    "P 1"
_space_group_IT_number       1

loop_
  _space_group_symop_operation_xyz
  'x, y, z'

loop_
  _atom_site_type_symbol
  _atom_site_label
  _atom_site_symmetry_multiplicity
  _atom_site_fract_x
  _atom_site_fract_y
  _atom_site_fract_z
  _atom_site_occupancy
  N   N1        1.0  0.7077241665450394  0.3879072049902925  0.5576000906222434  1.0000
  C   C1        1.0  0.6471304929623239  0.3527299842855085  0.5465743763675148  1.0000
  C   C2        1.0  0.571758622835274  0.3089733956528071  0.5328595850003597  1.0000
  C   C3        1.0  0.5536578487941795  0.2376120997915252  0.4278706823645746  1.0000
  C   C4        1.0  0.480475634585395  0.19501638391553922  0.41447187999649526  1.0000
  C   C5        1.0  0.4243454067745561  0.22340453893281764  0.5060294910739556  1.0000
  C   C6        1.0  0.3465715964535344  0.17825112326474435  0.49187210448106455  1.0000
  C   C7        1.0  0.2844095053455186  0.25997812362241945  0.5178151213815942  1.0000
  C   C8        1.0  0.211084947920378  0.21717941526216067  0.5044299733168462  1.0000
  C   C9        1.0  0.1478732549972295  0.3015969758153454  0.5307371325309611  1.0000
  N   N2        1.0  0.0970640411183564  0.3694628537807052  0.5518873615184026  1.0000
  C   C10       1.0  0.1993388896233306  0.09239579921745134  0.46507643362162754  1.0000
  C   C11       1.0  0.2606436086430787  0.010654952877011015  0.4391250271778635  1.0000
  C   C12       1.0  0.3338486681625457  0.053059287528606  0.45230763350957726  1.0000
  C   C13       1.0  0.4431376691861251  0.2952600033776711  0.6112376348955393  1.0000
  C   C14       1.0  0.5163727251058244  0.33766542550312995  0.6244807972077369  1.0000
  H   H1        1.0  0.5960512774623896  0.2151570796982758  0.3561705397758357  1.0000
  H   H2        1.0  0.4675561979759779  0.14137589641945247  0.3315627498648379  1.0000
  H   H3        1.0  0.2929240479178763  0.3574089238383056  0.5466974753921223  1.0000
  H   H4        1.0  0.1428679203428107  0.05837182902496041  0.4544798032845241  1.0000
  H   H5        1.0  0.2514309194073429  0.9140444610672  0.40904261376967654  1.0000
  H   H6        1.0  0.3804779659547211  0.9873370996871889  0.4332555562907734  1.0000
  H   H7        1.0  0.4014609716732815  0.31717566323324875  0.6842319370120304  1.0000
  H   H8        1.0  0.5298207779160504  0.39252655373639356  0.7063486657603226  1.0000
  C   C15       1.0  0.9023265403018725  0.9974098207561366  0.5547045888359234  1.0000
  C   C16       1.0  0.8381062986651604  0.005249011516798685  0.4761447501143712  1.0000
  C   C17       1.0  0.806506367024905  0.892174381569393  0.436567637951234  1.0000
  C   C18       1.0  0.8383479358280238  0.7701049845617639  0.4760872103277143  1.0000
  C   C19       1.0  0.9024688659002498  0.7599499444141842  0.5547940548231207  1.0000
  C   C20       1.0  0.9341661577010781  0.8742695453674187  0.5936090149531321  1.0000
  S   S1        1.0  0.72499005129981  0.9036062482719163  0.33517713162889873  1.0000
  C   C21       1.0  0.7802276260618236  0.9095342000671746  0.1879767919842752  1.0000
  O   O1        1.0  0.7983435495873888  0.8034241621417498  0.1413711026135689  1.0000
  C   C22       1.0  0.8050064109447433  0.03454900613688783  0.12213003341033368  1.0000
  C   C23       1.0  0.8581250920697918  0.03440670081895125  0.01986637069655184  1.0000
  C   C24       1.0  0.8822719563060997  0.1516201443191194  0.9578025149076761  1.0000
  C   C25       1.0  0.8537065801751585  0.27019707769291723  0.9967144699476029  1.0000
  C   C26       1.0  0.8008138807919862  0.2718017251120135  0.09762206964167874  1.0000
  C   C27       1.0  0.7764165994547875  0.15490367247522507  0.16000970208620502  1.0000
  H   H9        1.0  0.023287162734629607  0.1899419558277362  0.7029506778472412  1.0000
  H   H10       1.0  0.8125482994539189  0.09899258919299325  0.4452508187802331  1.0000
  H   H11       1.0  0.8130319803185594  0.683563730062927  0.4447013036588927  1.0000
  H   H12       1.0  0.9836757631827607  0.8673057529427296  0.6541700855400274  1.0000
  H   H13       1.0  0.9269786572590939  0.4287683788827644  0.5843944329886288  1.0000
  H   H14       1.0  0.8813655168166248  0.9437519892284952  0.9882346602087848  1.0000
  H   H15       1.0  0.9232551108229087  0.15045884899646134  0.8795206201465149  1.0000
  H   H16       1.0  0.8724863750674386  0.36082832323772296  0.948575133962613  1.0000
  H   H17       1.0  0.7785581046916307  0.36379328445334824  0.12747906485411242  1.0000
  H   H18       1.0  0.7349934105208267  0.15947391195016203  0.23716596378879062  1.0000
  C   C28       1.0  0.9024117996727752  0.3788084477782214  0.1734620867595813  1.0000
  C   C29       1.0  0.9368757392807135  0.5002447921524049  0.16205820468415655  1.0000
  C   C30       1.0  0.954357997292382  0.5601282023509617  0.03942366781361972  1.0000
  C   C31       1.0  0.9369469639577578  0.49983765191501006  0.9269516992277436  1.0000
  C   C32       1.0  0.9023836034816168  0.37855128643821234  0.9360365603569014  1.0000
  C   C33       1.0  0.8853503594804072  0.3186080587158311  0.059857930864243514  1.0000
  S   S2        1.0  0.9990554036018614  0.714506253861313  0.02626408468223751  1.0000
  C   C34       1.0  0.09158614815410249  0.6403387309318462  0.027466440324514174  1.0000
  O   O2        1.0  0.1209825067213961  0.6157789061090289  0.9199720687065471  1.0000
  C   C35       1.0  0.1329887890757906  0.6070421510606174  0.1503796973238416  1.0000
  C   C36       1.0  0.19961964479530692  0.5301798627656753  0.14958546536251682  1.0000
  C   C37       1.0  0.2387696758338309  0.4974358261510514  0.26495939342034647  1.0000
  C   C38       1.0  0.21208621423970664  0.541037321164787  0.38229356659107316  1.0000
  C   C39       1.0  0.1462627663107965  0.6177025869805779  0.3844561993991007  1.0000
  C   C40       1.0  0.10688856857621643  0.6508312884386984  0.2693850113635283  1.0000
  H   H19       1.0  0.8373407382380498  0.15004059304015915  0.4022664384210788  1.0000
  H   H20       1.0  0.9503805532817466  0.5485211171620206  0.24818025733433724  1.0000
  H   H21       1.0  0.9507701418304499  0.5477674438586733  0.8327833406747094  1.0000
  H   H22       1.0  0.858782862506189  0.2249889907830389  0.06772893076485675  1.0000
  H   H23       1.0  0.8894477186917814  0.33225867008811827  0.6121614702720843  1.0000
  H   H24       1.0  0.22131391717061355  0.49470246041746546  0.05994436358986688  1.0000
  H   H25       1.0  0.2898261768934689  0.43804623994347325  0.2633563995128738  1.0000
  H   H26       1.0  0.24246067104645985  0.5155529497086699  0.4715070726442947  1.0000
  H   H27       1.0  0.1257347816270118  0.6517380317606138  0.4754340601375986  1.0000
  H   H28       1.0  0.05640235743713773  0.7111356900605064  0.27420700911159646  1.0000
  Zn  Zn1       1.0  0.8200792420253855  0.38258109668585405  0.5559590291817289  1.0000
  Zn  Zn2       1.0  0.9847089450707933  0.3747783749173361  0.5535390960424693  1.0000
  C   C41       1.0  0.9023862723521577  0.3734275865769008  0.7918930491501601  1.0000
  C   C42       1.0  0.9024037127962559  0.3839334379941013  0.3176051772797379  1.0000
  C   C43       1.0  0.9024382669254715  0.6158155489728561  0.5496031155992795  1.0000
  C   C44       1.0  0.9023516617526687  0.1415439183187912  0.5598951806972066  1.0000
  O   O3        1.0  0.9648771120404057  0.382686674934102  0.3650625625425574  1.0000
  O   O4        1.0  0.9648630082784925  0.3687512850019614  0.7425986167472463  1.0000
  O   O5        1.0  0.9649041522961397  0.5644826695125502  0.5469477937017819  1.0000
  O   O6        1.0  0.9648359118511286  0.18695530240681668  0.5607132890610615  1.0000
  O   O7        1.0  0.8399522190650132  0.5704041718604749  0.5487848369821118  1.0000
  O   O8        1.0  0.8399110753376018  0.3746743472933427  0.7444355909799634  1.0000
  O   O9        1.0  0.8399251791988044  0.38860969250468114  0.3668979757030151  1.0000
  O   O10       1.0  0.8398839790011197  0.19287831065819439  0.5625487995674552  1.0000
