data_image0
_chemical_formula_structural       NC10NC5H10C6SCOC6H10C7OC6OCH12Zn2C4O8
_chemical_formula_sum              "N2 C46 H32 S1 O11 Zn2"
_cell_length_a       19.4436361288709
_cell_length_b       10.302038109246572
_cell_length_c       10.299362532796529
_cell_angle_alpha    85.5856087193975
_cell_angle_beta     89.71996928525027
_cell_angle_gamma    89.43651638143119

_space_group_name_H-M_alt    "P 1"
_space_group_IT_number       1

loop_
  _space_group_symop_operation_xyz
  'x, y, z'

loop_
  _atom_site_type_symbol
  _atom_site_label
  _atom_site_symmetry_multiplicity
  _atom_site_fract_x
  _atom_site_fract_y
  _atom_site_fract_z
  _atom_site_occupancy
  N   N1        1.0  0.64768148452457  0.4085303386759116  0.5623074791616345  1.0000
  C   C1        1.0  0.5888500913079805  0.418431628665378  0.5766928462187599  1.0000
  C   C2        1.0  0.5155264827908876  0.43077987133541473  0.5946868994579717  1.0000
  C   C3        1.0  0.473318402722884  0.39877884838229516  0.5000088766989148  1.0000
  C   C4        1.0  0.3974165343436616  0.40921525128374747  0.5053384672760841  1.0000
  C   C5        1.0  0.3576943665565723  0.38448693215914576  0.6124067809234239  1.0000
  C   C6        1.0  0.2815719030758965  0.38840095559662213  0.5994480359256713  1.0000
  C   C7        1.0  0.241037160575546  0.4460599740132396  0.6932267892902984  1.0000
  C   C8        1.0  0.1693722794298709  0.4496955051200371  0.6826834708829297  1.0000
  C   C9        1.0  0.1372473759196832  0.3952761396229292  0.5786478661540422  1.0000
  C   C10       1.0  0.0634532295444211  0.3989728793860299  0.5679492754533308  1.0000
  N   N2        1.0  0.0041277410353052  0.40194486419287623  0.5593483178414766  1.0000
  C   C11       1.0  0.1770571855980292  0.3369102523944527  0.48525224186639826  1.0000
  C   C12       1.0  0.24873843696503203  0.33322047885819894  0.49554377596945987  1.0000
  C   C13       1.0  0.3858463496228203  0.3440526097129657  0.7434948706027762  1.0000
  C   C14       1.0  0.444526443892646  0.3871698556935401  0.7907435142471424  1.0000
  C   C15       1.0  0.48873544614166814  0.484994665999513  0.7163908362253055  1.0000
  H   H1        1.0  0.49539474737802996  0.3696575246590259  0.4096981665255197  1.0000
  H   H2        1.0  0.3727034577193  0.431692661073914  0.4121838441297916  1.0000
  H   H3        1.0  0.26493077073875343  0.48935041554785674  0.774081139175741  1.0000
  H   H4        1.0  0.1390493948841538  0.4950081781291009  0.7556106886724865  1.0000
  H   H5        1.0  0.152691791468677  0.29381546243017587  0.4047324023100276  1.0000
  H   H6        1.0  0.2783954694771595  0.28566505502257966  0.42331255737691986  1.0000
  H   H7        1.0  0.3548828790958894  0.27985939659120396  0.8077320283249516  1.0000
  H   H8        1.0  0.45969003928525975  0.35312332153273984  0.888672496007189  1.0000
  H   H9        1.0  0.45863655160065  0.5756834744142221  0.691152412829731  1.0000
  H   H10       1.0  0.5320372461809626  0.5105823162993093  0.7794793091535155  1.0000
  C   C16       1.0  0.8258427544700822  0.023960298266945568  0.5607882774282733  1.0000
  C   C17       1.0  0.7670343082083063  0.0297915950975558  0.4817577062918539  1.0000
  C   C18       1.0  0.7380971200061179  0.91572836915172  0.44194877591678794  1.0000
  C   C19       1.0  0.7672555210790442  0.794654892947345  0.4817018642296145  1.0000
  C   C20       1.0  0.8259730716013916  0.7865048166757582  0.5608787690486854  1.0000
  C   C21       1.0  0.8549992615277412  0.9018154832889453  0.5999260776942557  1.0000
  S   S1        1.0  0.663449835647212  0.92461047706874  0.3399604095027411  1.0000
  C   C22       1.0  0.7139950555007312  0.932125490333231  0.19312027657085462  1.0000
  O   O1        1.0  0.7305723484834388  0.8265370399899555  0.14663306953842703  1.0000
  C   C23       1.0  0.736668949536388  0.05785235015901957  0.1274351401008762  1.0000
  C   C24       1.0  0.7852821371673183  0.05926183547845931  0.02552604096482325  1.0000
  C   C25       1.0  0.8073781580354086  0.17717054469490767  0.9636201231755601  1.0000
  C   C26       1.0  0.7812328696842357  0.294902497375759  0.002338060458965785  1.0000
  C   C27       1.0  0.7328263352561526  0.294961355622422  0.1028924133740472  1.0000
  C   C28       1.0  0.710501109849152  0.17736061847975404  0.1651204033626703  1.0000
  H   H11       1.0  0.9366101571517342  0.22027453792261764  0.7099210616290332  1.0000
  H   H12       1.0  0.7436301287177193  0.12273632451096761  0.4506765127585559  1.0000
  H   H13       1.0  0.7440728507524724  0.7073218442233883  0.4501303055786807  1.0000
  H   H14       1.0  0.9003367261769654  0.8963996435093936  0.6608500514683007  1.0000
  H   H15       1.0  0.8484173730177589  0.45608931904326094  0.5906587237321723  1.0000
  H   H16       1.0  0.8065536140828887  0.9692946066849586  0.9940521863682816  1.0000
  H   H17       1.0  0.8448852549432053  0.17720692011863126  0.8856119168670973  1.0000
  H   H18       1.0  0.7984176802273253  0.3860745580377105  0.9543215849380307  1.0000
  H   H19       1.0  0.7124560108275992  0.3862942761633046  0.1325981503156748  1.0000
  H   H20       1.0  0.6725909573057878  0.18071904638712621  0.24199962897736427  1.0000
  C   C29       1.0  0.8258542042016871  0.4051130390818254  0.1794670615316345  1.0000
  C   C30       1.0  0.7605562224684589  0.34765290615046696  0.18328975979764217  1.0000
  C   C31       1.0  0.7273254857472169  0.32000011628326375  0.06804892671700213  1.0000
  C   C32       1.0  0.760749938106156  0.34781284576172355  0.9480338713982417  1.0000
  C   C33       1.0  0.8259616084924755  0.40535205123801976  0.9421999739076514  1.0000
  C   C34       1.0  0.8580810250728679  0.433926755262682  0.058458987267252516  1.0000
  C   C35       1.0  0.65872198864469  0.257985107918834  0.07441366747308975  1.0000
  O   O2        1.0  0.6446564327404538  0.1790573875393029  0.17041749157153352  1.0000
  C   C36       1.0  0.6060778778931332  0.2855025749278146  0.9719390806408659  1.0000
  C   C37       1.0  0.6008098734694992  0.40894284761978494  0.9041442237999013  1.0000
  C   C38       1.0  0.5504713747791434  0.4340466713307398  0.8088694345049654  1.0000
  C   C39       1.0  0.504189071263911  0.3372608941683455  0.780193124937421  1.0000
  C   C40       1.0  0.5087337964664959  0.21402749235718255  0.8489122254910617  1.0000
  C   C41       1.0  0.5590661098891087  0.18879661433337303  0.9442594558764275  1.0000
  O   O3        1.0  0.45468227626436913  0.3673281375060513  0.6836230671305792  1.0000
  C   C42       1.0  0.40451942590365764  0.27851520680662056  0.6446561124251535  1.0000
  H   H21       1.0  0.9491887779610111  0.5130468132898549  0.37956071467106467  1.0000
  H   H22       1.0  0.7350867813229162  0.32538798335240116  0.276032550902678  1.0000
  H   H23       1.0  0.7361589093755291  0.3231931212923149  0.8591809358411773  1.0000
  H   H24       1.0  0.9083872518261826  0.4783098789277773  0.054691341765879864  1.0000
  H   H25       1.0  0.8510934865763208  0.4269404595375663  0.612524786827306  1.0000
  H   H26       1.0  0.6351051622329102  0.4865411694511734  0.9256931126431085  1.0000
  H   H27       1.0  0.5472106407709584  0.5295433876770765  0.7573443262916029  1.0000
  H   H28       1.0  0.47364857868052324  0.13712938855616863  0.8294667524599806  1.0000
  H   H29       1.0  0.5616585750250738  0.09313041979807668  0.9956768978785591  1.0000
  H   H30       1.0  0.37222158533590094  0.3277953062915542  0.5668466868214495  1.0000
  H   H31       1.0  0.3709287509184341  0.2469305296543507  0.728480778929169  1.0000
  H   H32       1.0  0.4301437284205867  0.19274231582713597  0.6057773184743014  1.0000
  Zn  Zn1       1.0  0.7505441762222976  0.4066264448132919  0.5614610408049665  1.0000
  Zn  Zn2       1.0  0.9012650405445926  0.4038381562694717  0.5602054360507489  1.0000
  C   C43       1.0  0.8259388792422627  0.4001344772872941  0.7980265071646917  1.0000
  C   C44       1.0  0.8258719836896449  0.4103317316130939  0.3236400836398359  1.0000
  C   C45       1.0  0.8259441508145217  0.6423661056124512  0.5556865333538243  1.0000
  C   C46       1.0  0.8258666604300988  0.16809854433355786  0.5659801269322733  1.0000
  O   O4        1.0  0.8830757322022919  0.4110193671493161  0.3715493707635893  1.0000
  O   O5        1.0  0.8831287790868313  0.3973296156587591  0.7491638711253852  1.0000
  O   O6        1.0  0.8831322650847657  0.5929347336558031  0.5534726342612297  1.0000
  O   O7        1.0  0.8830721947614129  0.21541425936119962  0.5672405106832616  1.0000
  O   O8        1.0  0.7687369705718428  0.5950503426744818  0.5544259665940989  1.0000
  O   O9        1.0  0.7687334848275608  0.3994467845847336  0.7501171343983293  1.0000
  O   O10       1.0  0.7686804377611884  0.41313649034004674  0.3725010726401985  1.0000
  O   O11       1.0  0.7686769003296194  0.2175313732959201  0.5681923099259991  1.0000
