data_image0
_chemical_formula_structural       NC10NC3NH7C6SCOC6H10C7OC6H10Zn2C4O8
_chemical_formula_sum              "N3 C43 H27 S1 O10 Zn2"
_cell_length_a       19.210446455230148
_cell_length_b       10.302038109246572
_cell_length_c       10.299382801718286
_cell_angle_alpha    85.57853228507349
_cell_angle_beta     89.97114799571779
_cell_angle_gamma    89.9653702289085

_space_group_name_H-M_alt    "P 1"
_space_group_IT_number       1

loop_
  _space_group_symop_operation_xyz
  'x, y, z'

loop_
  _atom_site_type_symbol
  _atom_site_label
  _atom_site_symmetry_multiplicity
  _atom_site_fract_x
  _atom_site_fract_y
  _atom_site_fract_z
  _atom_site_occupancy
  N   N1        1.0  0.6559711815439981  0.4195851932370205  0.5675595325267837  1.0000
  C   C1        1.0  0.5957427924864525  0.4217921873942174  0.5677910498943559  1.0000
  C   C2        1.0  0.5209385516788269  0.42452845596913424  0.5680778713726073  1.0000
  C   C3        1.0  0.4853355647922469  0.5407320050454534  0.5832090852295535  1.0000
  C   C4        1.0  0.4126701070381018  0.5408834949901764  0.5831565133599896  1.0000
  C   C5        1.0  0.3757718459803868  0.4252372574233889  0.568164473052762  1.0000
  C   C6        1.0  0.2984496224441787  0.42388110054213346  0.5680136542506464  1.0000
  C   C7        1.0  0.2607147097750896  0.5274148115447759  0.5046693787510281  1.0000
  C   C8        1.0  0.1879362494204621  0.5260129180603446  0.504560069931459  1.0000
  C   C9        1.0  0.1518913214463432  0.42133474951235095  0.5677440830494827  1.0000
  C   C10       1.0  0.076961709699602  0.42003297516749005  0.5676070366103811  1.0000
  N   N2        1.0  0.0167237836517662  0.41898630440248974  0.5674968861417438  1.0000
  C   C11       1.0  0.1889025916420182  0.3179266949679922  0.6310633711982827  1.0000
  C   C12       1.0  0.2616828688597888  0.31905439838503  0.631222879813534  1.0000
  C   C13       1.0  0.4139848074328964  0.31085355055481023  0.5533217278362941  1.0000
  N   N3        1.0  0.4847549411761616  0.31329793260354766  0.5534876995677711  1.0000
  H   H1        1.0  0.5134423789353333  0.6301449228769269  0.595272454311393  1.0000
  H   H2        1.0  0.3854069312676931  0.6308783611613886  0.596614699430849  1.0000
  H   H3        1.0  0.2874570374392896  0.608639110240853  0.453692493657069  1.0000
  H   H4        1.0  0.1598046025039118  0.6064099418815108  0.45491343605009593  1.0000
  H   H5        1.0  0.1615208392434787  0.2365665022746386  0.6806103594055994  1.0000
  H   H6        1.0  0.2891694260576604  0.23877676795783565  0.682307255963402  1.0000
  H   H7        1.0  0.3877137220080715  0.21999597487740963  0.5398171503954003  1.0000
  C   C14       1.0  0.8362848863140979  0.038007424313026394  0.5674880626294205  1.0000
  C   C15       1.0  0.7767917645640803  0.042860836824574866  0.4879790063805678  1.0000
  C   C16       1.0  0.7475179750557259  0.928316548478619  0.4479346263364987  1.0000
  C   C17       1.0  0.777015667503826  0.8077278566730088  0.4879249614721215  1.0000
  C   C18       1.0  0.8364167481272637  0.8005541201252142  0.5675796139044149  1.0000
  C   C19       1.0  0.8657808615603935  0.9163474379040983  0.6068630896091984  1.0000
  S   S1        1.0  0.6720021548552528  0.9359576057046987  0.34533889192062417  1.0000
  C   C20       1.0  0.7232055477498714  0.944339620296036  0.1989083648595542  1.0000
  O   O1        1.0  0.7399981588412177  0.8390353135345137  0.15255550890045777  1.0000
  C   C21       1.0  0.7461746290551466  0.07045538216773584  0.13340697339996277  1.0000
  C   C22       1.0  0.7954080711693389  0.07269387348291945  0.03189212492872362  1.0000
  C   C23       1.0  0.8177910728601665  0.19098131312521827  0.9701652853162206  1.0000
  C   C24       1.0  0.7913174197489101  0.3082693943614603  0.008671062150432007  1.0000
  C   C25       1.0  0.7422935666027565  0.30750288448762353  0.10883283328190863  1.0000
  C   C26       1.0  0.7196784873712332  0.18951952783099668  0.17087988504097607  1.0000
  H   H8        1.0  0.9483418052881416  0.23616350311987522  0.7175220894433054  1.0000
  H   H9        1.0  0.7531149822910942  0.13541634879285813  0.45670739148894013  1.0000
  H   H10       1.0  0.7535632290662949  0.7200093711356826  0.45616477769230923  1.0000
  H   H11       1.0  0.9116461673295566  0.9116854833816034  0.6681559440747777  1.0000
  H   H12       1.0  0.8591224806408185  0.4705118801945181  0.597542179971813  1.0000
  H   H13       1.0  0.816946692889547  0.9830877696185063  0.0005908816020976371  1.0000
  H   H14       1.0  0.8557765210447119  0.19165722474178337  0.8924612645451675  1.0000
  H   H15       1.0  0.8087253826937986  0.399735990245234  0.9607938626807901  1.0000
  H   H16       1.0  0.721667555884622  0.398490032610467  0.1383732681856933  1.0000
  H   H17       1.0  0.6812854816049133  0.1922317899429442  0.24745164121954089  1.0000
  C   C27       1.0  0.8364202314072804  0.4192074448790213  0.18616401570954877  1.0000
  C   C28       1.0  0.9095500968400758  0.41994930734622504  0.1848477672837574  1.0000
  C   C29       1.0  0.946434469951645  0.41883575940649775  0.0671255947894609  1.0000
  C   C30       1.0  0.9093804748166063  0.4199776189811064  0.9496022314120118  1.0000
  C   C31       1.0  0.836281351891683  0.4193540960585782  0.9489035915589428  1.0000
  C   C32       1.0  0.8002251970476645  0.41862798642258703  0.06775019310535924  1.0000
  C   C33       1.0  0.0236503413232243  0.4210026923700849  0.06548397207281131  1.0000
  O   O2        1.0  0.05433130910879669  0.4816461699500345  0.9709590779401678  1.0000
  C   C34       1.0  0.06606036030374818  0.3543649618093776  0.17097477984161902  1.0000
  C   C35       1.0  0.13149684532433636  0.40470410316614736  0.2020708938691156  1.0000
  C   C36       1.0  0.17220978554215183  0.34171763538556243  0.30031067958063073  1.0000
  C   C37       1.0  0.14833854693179327  0.227480924888102  0.3676650411143052  1.0000
  C   C38       1.0  0.08382486113694476  0.17569363352857037  0.3365455742249377  1.0000
  C   C39       1.0  0.04291355755466775  0.23830180848271265  0.23840783819951694  1.0000
  H   H18       1.0  0.6984135759803142  0.4198186535864985  0.3958127584450175  1.0000
  H   H19       1.0  0.9379088533962537  0.4228520025451812  0.2754420421794246  1.0000
  H   H20       1.0  0.9377458968186421  0.4201018407517465  0.8586458445540956  1.0000
  H   H21       1.0  0.7438475809188123  0.4180568648740508  0.06796068626483076  1.0000
  H   H22       1.0  0.8082000839719808  0.4202192801800808  0.6210935268093767  1.0000
  H   H23       1.0  0.15083787870994114  0.493323910067613  0.15114270294027699  1.0000
  H   H24       1.0  0.2223235083764865  0.38150868779834557  0.3241794588067466  1.0000
  H   H25       1.0  0.17995186834014576  0.17881276968201587  0.44359710925964846  1.0000
  H   H26       1.0  0.06561680314438778  0.08661614580494525  0.38810227570676736  1.0000
  H   H27       1.0  0.9936351131968024  0.1952279826464849  0.21435229872978545  1.0000
  Zn  Zn1       1.0  0.7600765870236772  0.4194089050671512  0.5675489528024233  1.0000
  Zn  Zn2       1.0  0.9126183584667106  0.4191520145832137  0.5675181003984064  1.0000
  C   C40       1.0  0.8363051769310194  0.41415392230652426  0.8047288926790379  1.0000
  C   C41       1.0  0.8363914345708011  0.42440863279349084  0.3303382878482606  1.0000
  C   C42       1.0  0.8363891631473551  0.6564155645225249  0.5623871033830983  1.0000
  C   C43       1.0  0.836307396020317  0.1821454307464827  0.5726801462062914  1.0000
  O   O3        1.0  0.8942705763945981  0.4260510459754707  0.37871278161985344  1.0000
  O   O4        1.0  0.8942017099548663  0.4123155556296023  0.7563306086821988  1.0000
  O   O5        1.0  0.894268749272067  0.6079448971094692  0.5606378995372343  1.0000
  O   O6        1.0  0.8942034850445563  0.23042171385255772  0.5744053934015645  1.0000
  O   O7        1.0  0.778491408390813  0.6081392058868831  0.5606616598029619  1.0000
  O   O8        1.0  0.7784243693527418  0.4125114243271002  0.7563542998895334  1.0000
  O   O9        1.0  0.7784932361151925  0.426246869127481  0.3787349114174021  1.0000
  O   O10       1.0  0.7784261447429731  0.23061752773669042  0.5744276205660639  1.0000
