data_image0
_chemical_formula_structural       NC8NC6H8C7OC6OCH12C7OC4NC3H9Zn2C4O8
_chemical_formula_sum              "N3 C46 H29 O11 Zn2"
_cell_length_a       17.457602349358154
_cell_length_b       10.299359160628079
_cell_length_c       10.299375074045738
_cell_angle_alpha    85.54493941547133
_cell_angle_beta     92.86983099302364
_cell_angle_gamma    91.71072845926622

_space_group_name_H-M_alt    "P 1"
_space_group_IT_number       1

loop_
  _space_group_symop_operation_xyz
  'x, y, z'

loop_
  _atom_site_type_symbol
  _atom_site_label
  _atom_site_symmetry_multiplicity
  _atom_site_fract_x
  _atom_site_fract_y
  _atom_site_fract_z
  _atom_site_occupancy
  N   N1        1.0  0.7228628967553525  0.45339411651905825  0.6266173326223468  1.0000
  C   C1        1.0  0.6617748195170576  0.4074715914125506  0.6159958046413594  1.0000
  C   C2        1.0  0.5857786690990034  0.3503496811143625  0.6027921668619898  1.0000
  C   C3        1.0  0.5272544203318112  0.3904843527926898  0.6776976896037719  1.0000
  C   C4        1.0  0.4526968120163729  0.33548053385308085  0.6651087628400156  1.0000
  C   C5        1.0  0.3905818952229619  0.37785674582407003  0.7444365374127042  1.0000
  C   C6        1.0  0.3160434201167238  0.3963467830256908  0.68867282842374  1.0000
  C   C7        1.0  0.2575191175805691  0.4362974830703319  0.763686287953407  1.0000
  C   C8        1.0  0.18154278221119563  0.4553942292011435  0.7057070951685314  1.0000
  N   N2        1.0  0.1204707235610517  0.4707416331519063  0.659091974479658  1.0000
  C   C9        1.0  0.2730411501934096  0.4580011019752701  0.8949720238840095  1.0000
  C   C10       1.0  0.34679498683486815  0.43989991600992906  0.9511233927078557  1.0000
  C   C11       1.0  0.40530769574113  0.4001291022668301  0.8765676948011536  1.0000
  C   C12       1.0  0.4379520360341184  0.23966514649989268  0.5761812541763283  1.0000
  C   C13       1.0  0.496464605240695  0.19980901148694574  0.5016757841305444  1.0000
  C   C14       1.0  0.5702374368539418  0.2549250011571842  0.5148146970040453  1.0000
  H   H1        1.0  0.5396116987420941  0.46565564377911906  0.7443399817306962  1.0000
  H   H2        1.0  0.3037018589814389  0.3814146851315454  0.5866422974540684  1.0000
  H   H3        1.0  0.2281834612640959  0.4888624981885925  0.9538139441453428  1.0000
  H   H4        1.0  0.3586232312069705  0.4563898606044232  0.05278082905474635  1.0000
  H   H5        1.0  0.46178660540773875  0.3851194099564694  0.9226743444368168  1.0000
  H   H6        1.0  0.3814573788724381  0.1943323202465188  0.5655236765498097  1.0000
  H   H7        1.0  0.48462148292687107  0.1257546678341095  0.43383525041674775  1.0000
  H   H8        1.0  0.6150949288408891  0.2231936884240051  0.45648382184069836  1.0000
  C   C15       1.0  0.9215801968571711  0.08068580085866528  0.6428160902644675  1.0000
  C   C16       1.0  0.8581285719367148  0.08322998348759825  0.5532332475750317  1.0000
  C   C17       1.0  0.8266753676210211  0.967553007035115  0.5070018564314531  1.0000
  C   C18       1.0  0.8583113030949092  0.8479763473093226  0.5535032889127496  1.0000
  C   C19       1.0  0.9217607609001567  0.843440198273358  0.6429050873150604  1.0000
  C   C20       1.0  0.9531357729011928  0.9603701794918034  0.6868444741709929  1.0000
  C   C21       1.0  0.7591437777603768  0.9723522122771507  0.413549101380178  1.0000
  O   O1        1.0  0.7103880647750981  0.05909336601975701  0.42113398273570035  1.0000
  C   C22       1.0  0.7469207934015076  0.8788188740484416  0.31149913646816385  1.0000
  C   C23       1.0  0.8093281832119997  0.8282168557491799  0.2525384611393806  1.0000
  C   C24       1.0  0.7970033771871566  0.7413285041311422  0.15544607577804204  1.0000
  C   C25       1.0  0.7224734362468076  0.7041754947980805  0.11459470721334797  1.0000
  C   C26       1.0  0.6598078970803133  0.7558015176039233  0.17222248530500117  1.0000
  C   C27       1.0  0.6720625448754988  0.8427456801959055  0.26935556388641313  1.0000
  O   O2        1.0  0.7131878551717449  0.6165796594763855  0.016934023695095002  1.0000
  C   C28       1.0  0.6408910762965478  0.5705977520774015  0.966159255806398  1.0000
  H   H9        1.0  0.04111279997981998  0.28311391476306325  0.8122607666703885  1.0000
  H   H10       1.0  0.8334569576963408  0.17549398641200953  0.5182320515317875  1.0000
  H   H11       1.0  0.832844235982585  0.7582394765466584  0.5209705531519984  1.0000
  H   H12       1.0  0.0020802648481736963  0.9576031389916432  0.7558134179664517  1.0000
  H   H13       1.0  0.9459041960457946  0.5141859007613286  0.6775964678011874  1.0000
  H   H14       1.0  0.867655091672653  0.8568409666558061  0.28043438589021585  1.0000
  H   H15       1.0  0.8456970801417394  0.7030233714227624  0.111239894381983  1.0000
  H   H16       1.0  0.6014490401505816  0.7294536200208573  0.1426792679290123  1.0000
  H   H17       1.0  0.622940131111758  0.880986708738747  0.31247592589045636  1.0000
  H   H18       1.0  0.6504734044299948  0.502649081235812  0.8904639339789795  1.0000
  H   H19       1.0  0.6071820736534901  0.6534912318604938  0.9208942966567308  1.0000
  H   H20       1.0  0.6086796518564458  0.5175924226184807  0.045067460013385574  1.0000
  C   C29       1.0  0.9216965876844841  0.4622065190072473  0.26147595372923704  1.0000
  C   C30       1.0  0.9807737535665819  0.557897043131208  0.2578666397622129  1.0000
  C   C31       1.0  0.009974864256119487  0.6072149521061323  0.13874021546653492  1.0000
  C   C32       1.0  0.9806494799185556  0.5576538801560895  0.022631150366179797  1.0000
  C   C33       1.0  0.9216443361987667  0.46191954859777207  0.024245214456176445  1.0000
  C   C34       1.0  0.8923718151465185  0.4149951355322894  0.14416231352618203  1.0000
  C   C35       1.0  0.07290692838074508  0.7072816859287792  0.1349121151684669  1.0000
  O   O3        1.0  0.12193391874952209  0.7047355925568957  0.04928100554085457  1.0000
  C   C36       1.0  0.08020954072310249  0.8102480835098143  0.22814504244019962  1.0000
  C   C37       1.0  0.15317799958462652  0.8599937288031791  0.26586583287613585  1.0000
  C   C38       1.0  0.16063566022791442  0.9583331035842648  0.3527012069211286  1.0000
  C   C39       1.0  0.23556853481717122  0.00795512270661547  0.39161352973514774  1.0000
  N   N3        1.0  0.2958061227994282  0.04784001842944008  0.4228908914264131  1.0000
  C   C40       1.0  0.09513227213841735  0.008327467574733571  0.4015497865245372  1.0000
  C   C41       1.0  0.022419872278207853  0.9606046891669888  0.3633491521813268  1.0000
  C   C42       1.0  0.014809691743244757  0.8625286505612257  0.27677690611363026  1.0000
  H   H21       1.0  0.8110175318505373  0.2801988068389052  0.4757877662135501  1.0000
  H   H22       1.0  0.004734052033531055  0.5931444964056602  0.3480101760795935  1.0000
  H   H23       1.0  0.0034945254325786657  0.5948872682257897  0.9307553856098951  1.0000
  H   H24       1.0  0.8468278917032352  0.3412240751623814  0.14614103280644364  1.0000
  H   H25       1.0  0.8994194510659027  0.4243623206353062  0.6975063225058258  1.0000
  H   H26       1.0  0.2041725836621724  0.8214975749778195  0.22864619360259364  1.0000
  H   H27       1.0  0.10026818681267202  0.08443123336388991  0.46865583794039156  1.0000
  H   H28       1.0  0.9718077506746527  9.624945631525605e-05  0.40045130564415987  1.0000
  H   H29       1.0  0.9578165486406897  0.8286478183310091  0.24681561837750898  1.0000
  Zn  Zn1       1.0  0.8376039254640993  0.45839674944694586  0.6359963111425191  1.0000
  Zn  Zn2       1.0  0.005729677353763396  0.4657283480321579  0.6497236276828107  1.0000
  C   C43       1.0  0.9216512956606037  0.45679983792423284  0.8800647216438611  1.0000
  C   C44       1.0  0.9216841434644129  0.46732697824445424  0.40565549474614593  1.0000
  C   C45       1.0  0.9217230285506672  0.6992651908645244  0.6377125239602812  1.0000
  C   C46       1.0  0.921612352830681  0.2248600624193653  0.6480077568050573  1.0000
  O   O4        1.0  0.9854828123766741  0.4718220886556115  0.45925291023353765  1.0000
  O   O5        1.0  0.985456182061181  0.4578682615816134  0.8368856478063793  1.0000
  O   O6        1.0  0.9855132470917389  0.6536620624589129  0.6411844634255424  1.0000
  O   O7        1.0  0.9854256899850528  0.27602829460371847  0.6549539925525782  1.0000
  O   O8        1.0  0.8579078554597429  0.6480968003748868  0.6307659415814604  1.0000
  O   O9        1.0  0.8578507907997864  0.4523045598818851  0.8264670568956753  1.0000
  O   O10       1.0  0.857877421262506  0.4662583422880735  0.4488327578567588  1.0000
  O   O11       1.0  0.8578202988588812  0.27046453891027555  0.6445339375463057  1.0000
