data_image0
_chemical_formula_structural       NC12NC2H8C7OC6OCH12C6NCOC6H11Zn2C4O8
_chemical_formula_sum              "N3 C45 H31 O11 Zn2"
_cell_length_a       17.80743265337812
_cell_length_b       10.299359160628079
_cell_length_c       10.299662537453274
_cell_angle_alpha    85.5452158657264
_cell_angle_beta     91.52043180893111
_cell_angle_gamma    89.45809633783337

_space_group_name_H-M_alt    "P 1"
_space_group_IT_number       1

loop_
  _space_group_symop_operation_xyz
  'x, y, z'

loop_
  _atom_site_type_symbol
  _atom_site_label
  _atom_site_symmetry_multiplicity
  _atom_site_fract_x
  _atom_site_fract_y
  _atom_site_fract_z
  _atom_site_occupancy
  N   N1        1.0  0.707927463386397  0.40718499987938794  0.6015221910902884  1.0000
  C   C1        1.0  0.6571233183069839  0.43676761677953757  0.5328276008242516  1.0000
  C   C2        1.0  0.5939179454367036  0.4735662436329193  0.4473801782201028  1.0000
  C   C3        1.0  0.605673396906554  0.5276308157840957  0.3207680098944794  1.0000
  C   C4        1.0  0.5443747220671585  0.5629250123229466  0.23771636249442363  1.0000
  C   C5        1.0  0.4711664384392408  0.5444183295580696  0.2806170184155756  1.0000
  C   C6        1.0  0.4584341260679002  0.49023479387113955  0.40769731195139003  1.0000
  C   C7        1.0  0.5205901198747296  0.45494385687715  0.4907324481497253  1.0000
  C   C8        1.0  0.3806570107939897  0.470612995123298  0.453458104000233  1.0000
  C   C9        1.0  0.36186132274813293  0.4977571026218264  0.580505683655496  1.0000
  C   C10       1.0  0.2886230975665411  0.4792919803522939  0.6234469079083356  1.0000
  C   C11       1.0  0.2332374273465265  0.4334281915023428  0.5401784843655537  1.0000
  C   C12       1.0  0.15786229428540743  0.41440976075164704  0.5845205577743833  1.0000
  N   N2        1.0  0.0972660250362749  0.39912022153089377  0.6201685343527383  1.0000
  C   C13       1.0  0.2513415154391457  0.4061149853358159  0.413673849973901  1.0000
  C   C14       1.0  0.3245269209608286  0.42459497946164615  0.3704767414849064  1.0000
  H   H1        1.0  0.6621467731794334  0.5424664667167485  0.28633310140040447  1.0000
  H   H2        1.0  0.5535946628240508  0.6050558182418544  0.13994321841011215  1.0000
  H   H3        1.0  0.4245420736826617  0.5740765114979194  0.21503037445730122  1.0000
  H   H4        1.0  0.5120682645092063  0.4114277559175994  0.5883809629758154  1.0000
  H   H5        1.0  0.4035379447443389  0.5349150860391454  0.6460835274186314  1.0000
  H   H6        1.0  0.2751724239564254  0.5011050290637624  0.7214583891915796  1.0000
  H   H7        1.0  0.20894824936708603  0.3702241710214562  0.3485091277904615  1.0000
  H   H8        1.0  0.3374488151268616  0.4012462501277949  0.2727683907287648  1.0000
  C   C15       1.0  0.9025119401516475  0.021776098966543866  0.6108097927551777  1.0000
  C   C16       1.0  0.8403857441421635  0.02837512994222746  0.5234363866109071  1.0000
  C   C17       1.0  0.809589685073578  0.914708145416703  0.478300278876419  1.0000
  C   C18       1.0  0.8405646574364924  0.7931098164841195  0.5237000647225694  1.0000
  C   C19       1.0  0.9026887438154911  0.7845189564837091  0.6108925076555489  1.0000
  C   C20       1.0  0.9334083936521261  0.899443929061308  0.6537394026480168  1.0000
  C   C21       1.0  0.7434686199908452  0.9238229391300171  0.38719896839057233  1.0000
  O   O1        1.0  0.6957261106270352  0.013680280370830022  0.3964791519132185  1.0000
  C   C22       1.0  0.7315067791432076  0.8310701783491873  0.28557729270595655  1.0000
  C   C23       1.0  0.7926206472057639  0.776479128998037  0.22444818174415349  1.0000
  C   C24       1.0  0.7805587614872216  0.6903778934037248  0.12778747018320202  1.0000
  C   C25       1.0  0.7075812440044158  0.6579880874570965  0.08952926318367527  1.0000
  C   C26       1.0  0.6462146854886667  0.7136196322173467  0.1493344964288843  1.0000
  C   C27       1.0  0.6582078689078523  0.7997811630851615  0.24603833976709089  1.0000
  O   O2        1.0  0.6984954309609569  0.5709851176159726  0.9921945785110071  1.0000
  C   C28       1.0  0.6277053249551585  0.5296236230840851  0.9439356242258654  1.0000
  H   H9        1.0  0.01954760246636278  0.21656553839127035  0.7760922262963992  1.0000
  H   H10       1.0  0.8162295021600573  0.12221576053617533  0.48929428132689856  1.0000
  H   H11       1.0  0.8156293321373553  0.7050004287815781  0.49205400472259253  1.0000
  H   H12       1.0  0.9813305025076624  0.8935491113815742  0.7210040640949442  1.0000
  H   H13       1.0  0.926327809817866  0.4537217870654338  0.6447431752513275  1.0000
  H   H14       1.0  0.849732913361803  0.8013755458837908  0.25031483455993486  1.0000
  H   H15       1.0  0.8282430636891841  0.6489603088493697  0.08188929844246084  1.0000
  H   H16       1.0  0.5890712481977189  0.6910014603498782  0.12182171400582065  1.0000
  H   H17       1.0  0.6101038441387269  0.8411620370639604  0.2908656353312433  1.0000
  H   H18       1.0  0.6370936136894313  0.4610620431910516  0.867909452913104  1.0000
  H   H19       1.0  0.5947003035743231  0.6146712764014656  0.8998443662299511  1.0000
  H   H20       1.0  0.5961582214457392  0.4786775237229776  0.02396153194317696  1.0000
  C   C29       1.0  0.9026520848881311  0.4032870080096522  0.2294776392733131  1.0000
  C   C30       1.0  0.979348416770921  0.43407362170096997  0.2293399640648992  1.0000
  C   C31       1.0  0.018205053586762165  0.44769414790893336  0.11259763464400385  1.0000
  C   C32       1.0  0.9792168888123027  0.43376626589035183  0.9941903381569461  1.0000
  C   C33       1.0  0.9025486127524949  0.4030080760039674  0.9922246127406917  1.0000
  C   C34       1.0  0.8647631070556363  0.38749622952135465  0.11046042260643008  1.0000
  N   N3        1.0  0.09644324607147148  0.48115989391929426  0.11586447527070964  1.0000
  C   C35       1.0  0.1496035445378261  0.4402077929541255  0.02419356146561391  1.0000
  O   O3        1.0  0.1358785938208682  0.34193165277944537  0.9619751367420988  1.0000
  C   C36       1.0  0.22174843320127402  0.5090436833823493  0.005305148808215199  1.0000
  C   C37       1.0  0.23084141090544064  0.6369284793232455  0.04210690473940781  1.0000
  C   C38       1.0  0.29901000974357506  0.7010734563698735  0.023187438540366312  1.0000
  C   C39       1.0  0.35863216676909104  0.6388100453780157  0.967062106716746  1.0000
  C   C40       1.0  0.35014912662294506  0.5123590311573478  0.9292837348689469  1.0000
  C   C41       1.0  0.28210851249945024  0.44775436055593465  0.9478802066108738  1.0000
  H   H21       1.0  0.7578042906436635  0.34642290781678975  0.4368995910871494  1.0000
  H   H22       1.0  0.009450822021588978  0.44666955163728383  0.3202032977042186  1.0000
  H   H23       1.0  0.008318246587529998  0.449127744389586  0.9034724201841926  1.0000
  H   H24       1.0  0.8056412505566614  0.3637462190227885  0.10970255439935417  1.0000
  H   H25       1.0  0.8728965015290363  0.392895008404361  0.6638798890416617  1.0000
  H   H26       1.0  0.1169570052741562  0.5279398661523826  0.19577410900692582  1.0000
  H   H27       1.0  0.18520582935340868  0.6884101463360581  0.08370008281655661  1.0000
  H   H28       1.0  0.3054954769125984  0.7994209011356508  0.051623478020118796  1.0000
  H   H29       1.0  0.4113204451104586  0.6886979521221348  0.9524729114151738  1.0000
  H   H30       1.0  0.396340800495387  0.46428323338541233  0.8855205410752394  1.0000
  H   H31       1.0  0.2769104068321744  0.34960287552451463  0.9181308060452578  1.0000
  Zn  Zn1       1.0  0.8202821636218258  0.40485420897047564  0.6069106096190304  1.0000
  Zn  Zn2       1.0  0.9849113184140851  0.40144041489788873  0.6147907078538823  1.0000
  C   C42       1.0  0.9025652767323007  0.3978870664639944  0.8480484667566948  1.0000
  C   C43       1.0  0.902630003411386  0.4084091587311587  0.37365306441223933  1.0000
  C   C44       1.0  0.9026521523934565  0.6403463284014486  0.605701420308189  1.0000
  C   C45       1.0  0.9025430712027445  0.1659483375998987  0.6160001772421546  1.0000
  O   O4        1.0  0.965098497624406  0.40882701639206553  0.4250301097461642  1.0000
  O   O5        1.0  0.9650465015708974  0.39487723848667966  0.8026518596932468  1.0000
  O   O6        1.0  0.9651158123776427  0.590666175787431  0.6069548648735212  1.0000
  O   O7        1.0  0.9650291306562482  0.2130380895822246  0.6207270045021167  1.0000
  O   O8        1.0  0.8401642951998132  0.5932565354525166  0.6009743102748739  1.0000
  O   O9        1.0  0.8400949847607041  0.3974691585119483  0.7966712360172683  1.0000
  O   O10       1.0  0.8401469810655516  0.4114188917304098  0.419047924648253  1.0000
  O   O11       1.0  0.8400776140789568  0.2156299555960357  0.6147449167720571  1.0000
