data_image0
_chemical_formula_structural       NC12NC2H8C6NCOC6H11C7OC3OC4H12Zn2C4O8
_chemical_formula_sum              "N3 C45 H31 O11 Zn2"
_cell_length_a       19.240039667572717
_cell_length_b       10.29965916528486
_cell_length_c       10.299374482448636
_cell_angle_alpha    85.56574019764442
_cell_angle_beta     89.98179719486372
_cell_angle_gamma    90.0154664442568

_space_group_name_H-M_alt    "P 1"
_space_group_IT_number       1

loop_
  _space_group_symop_operation_xyz
  'x, y, z'

loop_
  _atom_site_type_symbol
  _atom_site_label
  _atom_site_symmetry_multiplicity
  _atom_site_fract_x
  _atom_site_fract_y
  _atom_site_fract_z
  _atom_site_occupancy
  N   N1        1.0  0.6549260988837641  0.42158402308454224  0.5679062969262534  1.0000
  C   C1        1.0  0.5947777300925514  0.42158410708347027  0.5679062150163381  1.0000
  C   C2        1.0  0.5199596929916852  0.4215842243993144  0.5679060777485974  1.0000
  C   C3        1.0  0.48345907699308655  0.35709566394232506  0.6712987238015349  1.0000
  C   C4        1.0  0.4107882981556908  0.356984764481854  0.671385229517198  1.0000
  C   C5        1.0  0.3736274581064535  0.421584317016813  0.5679058500919301  1.0000
  C   C6        1.0  0.4108422964383471  0.48618405648742513  0.46442666528089305  1.0000
  C   C7        1.0  0.48351295410982  0.4860729215034896  0.4645132934173364  1.0000
  C   C8        1.0  0.2964223676716946  0.42158423838022085  0.5679057546449151  1.0000
  C   C9        1.0  0.2592110766888212  0.30831598035899455  0.6097373313726082  1.0000
  C   C10       1.0  0.1865404192802982  0.3084229000318708  0.6096460410757223  1.0000
  C   C11       1.0  0.1500900807194785  0.42158410919566935  0.5679058155110046  1.0000
  C   C12       1.0  0.0752720435057989  0.42158399539584623  0.5679060641397118  1.0000
  N   N2        1.0  0.015123726612350298  0.4215839545233222  0.5679062725517112  1.0000
  C   C13       1.0  0.18658725303522108  0.5347453941980411  0.5261655370808767  1.0000
  C   C14       1.0  0.2592579802823879  0.5348524940267423  0.5260740842483325  1.0000
  H   H1        1.0  0.5111529995252593  0.3071670555490309  0.7520249160754087  1.0000
  H   H2        1.0  0.3836739734882904  0.30785395597575516  0.7532272539468512  1.0000
  H   H3        1.0  0.3837700903301761  0.5353148920575239  0.38258459001073564  1.0000
  H   H4        1.0  0.5112488029793336  0.5360014295704709  0.3837873769125715  1.0000
  H   H5        1.0  0.28628617192005407  0.219155129674534  0.6408740492776801  1.0000
  H   H6        1.0  0.15880735152234327  0.2201609617066873  0.6418160844645451  1.0000
  H   H7        1.0  0.158890497339367  0.6230073079834335  0.4939955082341949  1.0000
  H   H8        1.0  0.2863693638874171  0.6240134238967672  0.49493732159856596  1.0000
  C   C15       1.0  0.8349671347049921  0.0402233399406462  0.5677907869075609  1.0000
  C   C16       1.0  0.8354627266721113  0.049536579385483615  0.4309719193706718  1.0000
  C   C17       1.0  0.8367372550760827  0.937392266282393  0.3621348776335489  1.0000
  C   C18       1.0  0.8355936283264168  0.8143462166054741  0.4312683098780399  1.0000
  C   C19       1.0  0.8350893497630303  0.8029346315642405  0.568032952673778  1.0000
  C   C20       1.0  0.8350235183503598  0.9164812358491132  0.6355222367066788  1.0000
  N   N3        1.0  0.8361762409401148  0.9504981243987254  0.22206580376905571  1.0000
  C   C21       1.0  0.8687690044515978  0.8593880776696351  0.14233801324458106  1.0000
  O   O1        1.0  0.9167073036278883  0.7865583250544691  0.18931703263657385  1.0000
  C   C22       1.0  0.8485905315142793  0.8532241627273325  0.00396888812262941  1.0000
  C   C23       1.0  0.7843307087630326  0.9030924225986581  0.957622161628978  1.0000
  C   C24       1.0  0.7657287189074573  0.8961099132032907  0.8270968087814676  1.0000
  C   C25       1.0  0.8107393717989804  0.8390431332998015  0.7416384023533875  1.0000
  C   C26       1.0  0.8743875988297622  0.7883876777485881  0.7866088810910337  1.0000
  C   C27       1.0  0.8932549375439655  0.7950138792912544  0.9170297571444932  1.0000
  H   H9        1.0  0.8333689104678692  0.22991943519077673  0.8258750292799386  1.0000
  H   H10       1.0  0.8353918931503248  0.14415860946281223  0.3771478191821167  1.0000
  H   H11       1.0  0.8338765537330359  0.7275681039472394  0.3784618915424096  1.0000
  H   H12       1.0  0.8346507663769556  0.908436391212395  0.7409941440503405  1.0000
  H   H13       1.0  0.8339712458318751  0.4711080661338161  0.6204955151721345  1.0000
  H   H14       1.0  0.8163530736203041  0.036641933900169565  0.1761244429704496  1.0000
  H   H15       1.0  0.7478989670328609  0.9457739860244923  0.022105833693687904  1.0000
  H   H16       1.0  0.7162022014063231  0.9345514699715647  0.7923103672217264  1.0000
  H   H17       1.0  0.7962014672115936  0.8337097295855874  0.6406788588299386  1.0000
  H   H18       1.0  0.909175181158315  0.7439107579064451  0.7203614542450203  1.0000
  H   H19       1.0  0.942955877021875  0.7553867279413612  0.9495974454931115  1.0000
  C   C28       1.0  0.835092647164712  0.4216664915345083  0.18652937296681982  1.0000
  C   C29       1.0  0.9076926181363815  0.4363304710557845  0.1841626434875936  1.0000
  C   C30       1.0  0.9442224747041302  0.4451979304260092  0.06568161014853402  1.0000
  C   C31       1.0  0.9075264773880722  0.4362666017521466  0.9489237724845334  1.0000
  C   C32       1.0  0.8349638390553332  0.42149150247235023  0.9492943448340845  1.0000
  C   C33       1.0  0.7991471755111531  0.41461796156327235  0.06860348596947508  1.0000
  C   C34       1.0  0.020964381766127804  0.459323595103305  0.06314706988082541  1.0000
  O   O2        1.0  0.055054329361617915  0.4057827912645231  0.977282931840215  1.0000
  C   C35       1.0  0.059030022598719256  0.5342032452176635  0.15793866345823493  1.0000
  C   C36       1.0  0.12683344442675026  0.4974862435017815  0.19609127526397585  1.0000
  C   C37       1.0  0.16396884340853202  0.567748671715143  0.2843169186551662  1.0000
  O   O3        1.0  0.23120695115531742  0.5258574335081263  0.3195968429421172  1.0000
  C   C38       1.0  0.274763227771895  0.5877266892446293  0.4080088079307087  1.0000
  C   C39       1.0  0.1329167638821247  0.6771327535165585  0.33426631271281115  1.0000
  C   C40       1.0  0.06592503336700406  0.7151829371610692  0.2956035698338726  1.0000
  C   C41       1.0  0.029190744620492648  0.6446875050821212  0.20761888493879943  1.0000
  H   H20       1.0  0.6982060622908174  0.39200627641548813  0.39847097771520024  1.0000
  H   H21       1.0  0.936000337934272  0.43942238075092854  0.27475490090667365  1.0000
  H   H22       1.0  0.9356743103868513  0.4421220417072631  0.8575320148660874  1.0000
  H   H23       1.0  0.7431779019969639  0.4033122533119482  0.06962434577165655  1.0000
  H   H24       1.0  0.8071538782764865  0.41473209921211507  0.6220634236256126  1.0000
  H   H25       1.0  0.15092331215613508  0.41317611069731686  0.15818599030719427  1.0000
  H   H26       1.0  0.32478396253819275  0.534370723412217  0.41795054313157776  1.0000
  H   H27       1.0  0.24966554190718537  0.585925797123908  0.5052429451389646  1.0000
  H   H28       1.0  0.2854649029996712  0.6897300559457242  0.3703796552171763  1.0000
  H   H29       1.0  0.16016167513999302  0.7335691624850944  0.40247517986571957  1.0000
  H   H30       1.0  0.04248798996809855  0.7999821082124896  0.33353794099047507  1.0000
  H   H31       1.0  0.9778006285369133  0.6774135265296515  0.17740511563758576  1.0000
  Zn  Zn1       1.0  0.7588713609005865  0.4215805344542978  0.5679137774841116  1.0000
  Zn  Zn2       1.0  0.9111784798792425  0.4215768474713735  0.5679093879077206  1.0000
  C   C42       1.0  0.8349858134675252  0.41635102258982437  0.8051138257132464  1.0000
  C   C43       1.0  0.8350656907423691  0.42680799785043444  0.33070946762195663  1.0000
  C   C44       1.0  0.8350635539161972  0.6587671775232344  0.5628118407623071  1.0000
  C   C45       1.0  0.8349878980601946  0.1843902826336148  0.5730115213200497  1.0000
  O   O4        1.0  0.8928564009100316  0.42852646952879536  0.3790959568692447  1.0000
  O   O5        1.0  0.8927926823639516  0.41462877296121636  0.7567236307085945  1.0000
  O   O6        1.0  0.8928546793630029  0.6103828835497309  0.5610630639852021  1.0000
  O   O7        1.0  0.8927943519568096  0.23277236825389802  0.5747564262189464  1.0000
  O   O8        1.0  0.777255436848076  0.6103850136744466  0.561066739167553  1.0000
  O   O9        1.0  0.7771934401075837  0.41463246337201487  0.7567272371384597  1.0000
  O   O10       1.0  0.7772571589563012  0.4285301150428027  0.37909800182839715  1.0000
  O   O11       1.0  0.7771951099823067  0.23277600445696156  0.5747585685464571  1.0000
