data_image0
_chemical_formula_structural       NC9NC5H8C7OC6OCH12C7OC6OCH12Zn2C4O8
_chemical_formula_sum              "N2 C46 H32 O12 Zn2"
_cell_length_a       17.807436237873137
_cell_length_b       10.299359160628079
_cell_length_c       10.299362532796529
_cell_angle_alpha    85.5843088683533
_cell_angle_beta     89.40785739381339
_cell_angle_gamma    88.41300836981586

_space_group_name_H-M_alt    "P 1"
_space_group_IT_number       1

loop_
  _space_group_symop_operation_xyz
  'x, y, z'

loop_
  _atom_site_type_symbol
  _atom_site_label
  _atom_site_symmetry_multiplicity
  _atom_site_fract_x
  _atom_site_fract_y
  _atom_site_fract_z
  _atom_site_occupancy
  N   N1        1.0  0.7075116616462565  0.38733572677696126  0.5572694858793781  1.0000
  C   C1        1.0  0.6469142921783888  0.3521422451034608  0.5462423161260985  1.0000
  C   C2        1.0  0.5715378247739676  0.3083654296054119  0.5325257142755098  1.0000
  C   C3        1.0  0.5534137839054682  0.23691776211255489  0.42751678239888347  1.0000
  C   C4        1.0  0.4802270852501186  0.19430232506616618  0.4141162076864644  1.0000
  C   C5        1.0  0.4241156165435156  0.22275701151986982  0.5056920777792075  1.0000
  C   C6        1.0  0.34633706127497416  0.17758272020084553  0.4915328219189583  1.0000
  C   C7        1.0  0.2841836192129047  0.2593477108731954  0.5174792879651473  1.0000
  C   C8        1.0  0.2108545707633572  0.21652923743956132  0.5040923751292887  1.0000
  C   C9        1.0  0.1476517181146031  0.30098572243749055  0.5304029957777938  1.0000
  N   N2        1.0  0.096849611413334  0.3688828936696049  0.5515560077449255  1.0000
  C   C10       1.0  0.1990953558845146  0.09168778262248845  0.4647336223091707  1.0000
  C   C11       1.0  0.2603914236306537  0.00990893695029671  0.4387787653098367  1.0000
  C   C12       1.0  0.333600917674771  0.05233280337263824  0.45196310378107407  1.0000
  C   C13       1.0  0.4429312099844969  0.2946991176096825  0.610920284588989  1.0000
  C   C14       1.0  0.5161707120358036  0.3371241109152261  0.6241651915311806  1.0000
  H   H1        1.0  0.5957925119103443  0.21441058211313013  0.35580234613938644  1.0000
  H   H2        1.0  0.4672893977099227  0.14059433509774033  0.3311911970775707  1.0000
  H   H3        1.0  0.2927080823161889  0.3568224795045285  0.5463653310810586  1.0000
  H   H4        1.0  0.1426208247901733  0.057648128250142205  0.4541355981658681  1.0000
  H   H5        1.0  0.2511686219327157  0.9132539144012066  0.4086923955641606  1.0000
  H   H6        1.0  0.3802236057302142  0.9865812347411628  0.43290862706217936  1.0000
  H   H7        1.0  0.4012694357371109  0.3166676334695864  0.6839291604816027  1.0000
  H   H8        1.0  0.5296368722658791  0.3920523858831808  0.7060486967798734  1.0000
  C   C15       1.0  0.9020958156410175  0.9967350436504644  0.554382525365996  1.0000
  C   C16       1.0  0.8399452873650322  0.004935064681426127  0.4708985350426065  1.0000
  C   C17       1.0  0.8091366384419357  0.8920604693783099  0.42769046841321945  1.0000
  C   C18       1.0  0.8401242742226903  0.7696651487215755  0.4711510119339599  1.0000
  C   C19       1.0  0.9022726405137572  0.7594732336277568  0.554454176112438  1.0000
  C   C20       1.0  0.933004218682699  0.8736063224861484  0.5953778748042999  1.0000
  C   C21       1.0  0.7429902237264429  0.90288046892476  0.340728619842418  1.0000
  O   O1        1.0  0.6952511397607517  0.9940194001266115  0.35299558354789773  1.0000
  C   C22       1.0  0.7309991495206776  0.8103790798226084  0.2398581948262064  1.0000
  C   C23       1.0  0.7920943754882951  0.7541144648513527  0.17490717047110738  1.0000
  C   C24       1.0  0.7800046941106128  0.6682706013822609  0.0790038297949025  1.0000
  C   C25       1.0  0.7070172306697226  0.6378046085569874  0.0453125807743362  1.0000
  C   C26       1.0  0.645668934909945  0.6951155810758191  0.10895557428658531  1.0000
  C   C27       1.0  0.6576899275377538  0.7810216040238662  0.20490634393329676  1.0000
  O   O2        1.0  0.6979033808000074  0.5509790577143171  0.9485490860098227  1.0000
  C   C28       1.0  0.6271003998644931  0.5114762344215612  0.9047205134323288  1.0000
  H   H9        1.0  0.019177514331517598  0.18850893745180963  0.7123379120287434  1.0000
  H   H10       1.0  0.8157795354252086  0.09939808740717093  0.43826873809976896  1.0000
  H   H11       1.0  0.8151801736038683  0.6822006395074727  0.44106593410495587  1.0000
  H   H12       1.0  0.9809450583457034  0.8664764648556034  0.659642372234355  1.0000
  H   H13       1.0  0.9259211401094359  0.42806729210341843  0.5868249009862601  1.0000
  H   H14       1.0  0.8492132459032901  0.7775025708960547  0.1971998324392612  1.0000
  H   H15       1.0  0.8276749712652919  0.6255484177421411  0.030123546771451792  1.0000
  H   H16       1.0  0.5885184173040087  0.6740054484815983  0.0850187791268675  1.0000
  H   H17       1.0  0.6095996243034534  0.8237175709403874  0.252742041027771  1.0000
  H   H18       1.0  0.636466534468986  0.44261286165114017  0.8281090903870489  1.0000
  H   H19       1.0  0.5940831252894234  0.5973759867549471  0.8626954723668492  1.0000
  H   H20       1.0  0.595576951305121  0.46142654826768786  0.9867179410425879  1.0000
  C   C29       1.0  0.9021255662740707  0.3779864041647967  0.17305229997949945  1.0000
  C   C30       1.0  0.8307994480323083  0.32268503039919905  0.17738094007610639  1.0000
  C   C31       1.0  0.7945010097215579  0.2961312654814252  0.062397548198434016  1.0000
  C   C32       1.0  0.831011046507828  0.3228385630145716  0.9421235509754933  1.0000
  C   C33       1.0  0.9022428923817074  0.3782219030546319  0.9357843767835088  1.0000
  C   C34       1.0  0.9373275023770894  0.4057348159736769  0.05179451520458822  1.0000
  C   C35       1.0  0.7195641452224363  0.23638386945402523  0.06929388110792267  1.0000
  O   O3        1.0  0.7041970835797448  0.1579038721893844  0.16540824558535072  1.0000
  C   C36       1.0  0.6620634106069051  0.2656609370469345  0.9672254630701103  1.0000
  C   C37       1.0  0.6563148724765906  0.38930863712667585  0.8994684261201411  1.0000
  C   C38       1.0  0.6013323969227473  0.4160946837084749  0.8045820452543717  1.0000
  C   C39       1.0  0.5507748976355802  0.3208244443370398  0.7762656523131994  1.0000
  C   C40       1.0  0.5557334234798513  0.1974077458844865  0.8449525173494901  1.0000
  C   C41       1.0  0.6107091372564151  0.17049481788809295  0.9399113900767424  1.0000
  O   O4        1.0  0.4967010978979457  0.352547513425689  0.6800774596880652  1.0000
  C   C42       1.0  0.4419053251764369  0.2653813696878744  0.6415002223318167  1.0000
  H   H21       1.0  0.03684603381300411  0.4818425674748388  0.3721903461244067  1.0000
  H   H22       1.0  0.802978742290547  0.30126216868068956  0.27032107005911366  1.0000
  H   H23       1.0  0.804149704376847  0.29903104679357484  0.8534612213878958  1.0000
  H   H24       1.0  0.9922778717905802  0.44845483964044974  0.04763708429292679  1.0000
  H   H25       1.0  0.9296948549668976  0.398979311586507  0.6059144752129719  1.0000
  H   H26       1.0  0.6937783567356285  0.46578546935485154  0.920750478331235  1.0000
  H   H27       1.0  0.5977750909362632  0.511724749975115  0.7530798995692933  1.0000
  H   H28       1.0  0.5174071491741151  0.12165760925955427  0.8257799688204939  1.0000
  H   H29       1.0  0.6135365004981128  0.07471747520360328  0.9913110376346124  1.0000
  H   H30       1.0  0.4066293490230214  0.315749421832469  0.5639392282381581  1.0000
  H   H31       1.0  0.4052135564967043  0.23490667808544297  0.7255852035264052  1.0000
  H   H32       1.0  0.4698902946016598  0.17873320068972953  0.6024254214577671  1.0000
  Zn  Zn1       1.0  0.8198661829453758  0.38200717473116064  0.5556282099178953  1.0000
  Zn  Zn2       1.0  0.984495071105079  0.374200862693852  0.5532079592437082  1.0000
  C   C43       1.0  0.9022178296755763  0.3730037305148912  0.791611207802309  1.0000
  C   C44       1.0  0.9021452225166895  0.38320586034669346  0.31722506254956384  1.0000
  C   C45       1.0  0.9022345468889277  0.6152981007475962  0.5492655237403257  1.0000
  C   C46       1.0  0.9021284487759439  0.14090993247528782  0.5595708165290241  1.0000
  O   O5        1.0  0.9646276231037836  0.3819894369678618  0.3646922856529782  1.0000
  O   O6        1.0  0.9646849456639041  0.36829436383189296  0.7423066965027849  1.0000
  O   O7        1.0  0.9646976030290662  0.5639501723776026  0.54661085449522  1.0000
  O   O8        1.0  0.9646149095491104  0.1863336403461997  0.5603880311133513  1.0000
  O   O9        1.0  0.8397462883215838  0.569874399744136  0.5484481388673341  1.0000
  O   O10       1.0  0.8397336313040549  0.3742201515024497  0.7441439117765034  1.0000
  O   O11       1.0  0.8396763085432533  0.3879151788973487  0.3665279395328367  1.0000
  O   O12       1.0  0.8396635949983305  0.1922593730169626  0.5622237823594833  1.0000
