data_image0
_chemical_formula_structural       NC8NC6H8C7OC6H10C7OC6H10Zn2C4O8
_chemical_formula_sum              "N2 C44 H28 O10 Zn2"
_cell_length_a       17.457602349358154
_cell_length_b       10.299379429549807
_cell_length_c       10.299382801718286
_cell_angle_alpha    85.54943384292815
_cell_angle_beta     92.85617812018302
_cell_angle_gamma    91.68701110263541

_space_group_name_H-M_alt    "P 1"
_space_group_IT_number       1

loop_
  _space_group_symop_operation_xyz
  'x, y, z'

loop_
  _atom_site_type_symbol
  _atom_site_label
  _atom_site_symmetry_multiplicity
  _atom_site_fract_x
  _atom_site_fract_y
  _atom_site_fract_z
  _atom_site_occupancy
  N   N1        1.0  0.7226687845164169  0.4526610312532353  0.6259557779139491  1.0000
  C   C1        1.0  0.6615939868181955  0.4067314470341423  0.6153581521584812  1.0000
  C   C2        1.0  0.5856143534087711  0.3496007606780993  0.6021842453186368  1.0000
  C   C3        1.0  0.5270698170138192  0.38977831802303053  0.6770652346402253  1.0000
  C   C4        1.0  0.4525280967003108  0.33476611844745574  0.6645049294398842  1.0000
  C   C5        1.0  0.3903917276202453  0.3771877448478056  0.7438067871330467  1.0000
  C   C6        1.0  0.3158558489385968  0.39564703141359314  0.688036788013854  1.0000
  C   C7        1.0  0.2573112920649278  0.43564067304398235  0.7630258015228799  1.0000
  C   C8        1.0  0.1813376893465478  0.45470544371180965  0.7050401336286993  1.0000
  N   N2        1.0  0.12026782937759731  0.47002713931934514  0.6584198101823595  1.0000
  C   C9        1.0  0.2728103438111037  0.45741827462267026  0.8942932299886599  1.0000
  C   C10       1.0  0.3465614321947282  0.43934806564337436  0.9504506700184041  1.0000
  C   C11       1.0  0.4050942883636112  0.3995345708074425  0.8759193013961539  1.0000
  C   C12       1.0  0.4378198609664782  0.23889864653285753  0.5756309989558199  1.0000
  C   C13       1.0  0.49635259285239286  0.1989998564558071  0.5011498987187162  1.0000
  C   C14       1.0  0.5701094346970864  0.2541245372089673  0.514260102547476  1.0000
  H   H1        1.0  0.5393988414821282  0.4649887230420324  0.7436656659070242  1.0000
  H   H2        1.0  0.3035316473196197  0.38065748389936527  0.5860195025595993  1.0000
  H   H3        1.0  0.2279368902626091  0.48831334340900745  0.953116216321968  1.0000
  H   H4        1.0  0.35837196359313245  0.4558952889784311  0.05209409072881488  1.0000
  H   H5        1.0  0.46157097929580354  0.38455031055723654  0.9220310105837417  1.0000
  H   H6        1.0  0.381338335633934  0.19355875533163958  0.5649970261972426  1.0000
  H   H7        1.0  0.4845375941934967  0.12490575549900029  0.4333507253820066  1.0000
  H   H8        1.0  0.6149828486297502  0.2223598166889169  0.4559485745473346  1.0000
  C   C15       1.0  0.9214803138851384  0.07995271889348854  0.6423428406211258  1.0000
  C   C16       1.0  0.9679639860861646  0.07211614180288595  0.7578834549220084  1.0000
  C   C17       1.0  0.9906897051130156  0.9508930881999942  0.8169512369784218  1.0000
  C   C18       1.0  0.9678706592339854  0.8368899392813524  0.7575995533803126  1.0000
  C   C19       1.0  0.9214636346083622  0.8427257601651724  0.6420445722924946  1.0000
  C   C20       1.0  0.8983709767868149  0.9647358141921516  0.5852700149805756  1.0000
  C   C21       1.0  0.04043944605605865  0.942564028965955  0.938210369470498  1.0000
  O   O1        1.0  0.08910842439023825  0.8539057330261602  0.9545403522303382  1.0000
  C   C22       1.0  0.03497307198778721  0.034711053010556325  0.040948419123983504  1.0000
  C   C23       1.0  0.1005817930692301  0.0670553563169145  0.11786776829768586  1.0000
  C   C24       1.0  0.09581019331918506  0.15262570853125657  0.21597007196633855  1.0000
  C   C25       1.0  0.025527092801310713  0.2058551418889385  0.23898956598256227  1.0000
  C   C26       1.0  0.9598003013865413  0.17319725032677025  0.1643046669148167  1.0000
  C   C27       1.0  0.9642638329699998  0.08769307829388384  0.06608954282076218  1.0000
  H   H9        1.0  0.8347311644897477  0.3021932257769189  0.42322913991353617  1.0000
  H   H10       1.0  0.9872539200088148  0.16055479199204692  0.8012953225716397  1.0000
  H   H11       1.0  0.9858216398509282  0.7433810369836393  0.8025022891000964  1.0000
  H   H12       1.0  0.8625359298598313  0.969973147376505  0.49619633329943147  1.0000
  H   H13       1.0  0.9041702342825068  0.5175833086998501  0.5970651418925552  1.0000
  H   H14       1.0  0.15562329774712702  0.02701017914189796  0.10131466588954907  1.0000
  H   H15       1.0  0.1466550275401759  0.17762717607324263  0.27421741389605736  1.0000
  H   H16       1.0  0.021938199655945567  0.2719836662730135  0.31503723731589905  1.0000
  H   H17       1.0  0.9052520607141546  0.21370310610032095  0.18289786221064608  1.0000
  H   H18       1.0  0.9123588516293345  0.061961029717584326  0.010915373094291136  1.0000
  C   C28       1.0  0.921548504422053  0.4612693493503721  0.2608301999919844  1.0000
  C   C29       1.0  0.0021475037465037428  0.46565321700863915  0.26610713327919333  1.0000
  C   C30       1.0  0.04279938595096122  0.46637615160640933  0.15171113513842882  1.0000
  C   C31       1.0  0.001960550962900598  0.4656730898028705  0.030846288946318134  1.0000
  C   C32       1.0  0.9213954089660775  0.4614091267421936  0.023557176866786156  1.0000
  C   C33       1.0  0.8816567278561632  0.45888724875060216  0.13915324733845225  1.0000
  C   C34       1.0  0.12790142235110347  0.4723889793496969  0.15703034804631733  1.0000
  O   O2        1.0  0.16170318072942358  0.5345778159934427  0.06523978319313373  1.0000
  C   C35       1.0  0.17465724461958199  0.4078440173091855  0.2663800510930161  1.0000
  C   C36       1.0  0.2467665460038413  0.4614563364768416  0.30334956699587656  1.0000
  C   C37       1.0  0.29165117872490876  0.4004791768266365  0.4052933117988806  1.0000
  C   C38       1.0  0.2653660621049476  0.2850207780136038  0.47055555653917613  1.0000
  C   C39       1.0  0.19427411985493626  0.2300058458993004  0.43364665248390066  1.0000
  C   C40       1.0  0.14917094381955898  0.2905947254015335  0.3317872716928405  1.0000
  H   H19       1.0  0.7694460835325652  0.455008146067569  0.45803559382373993  1.0000
  H   H20       1.0  0.033402132246567406  0.4699689854579989  0.3592567759571579  1.0000
  H   H21       1.0  0.03322311593117799  0.46720991594184724  0.9424473344023951  1.0000
  H   H22       1.0  0.8195209721044419  0.4555084158442635  0.1342808937533928  1.0000
  H   H23       1.0  0.8904458106487355  0.46087614224117623  0.6932147786808946  1.0000
  H   H24       1.0  0.26806419599198494  0.5510648488480068  0.25411853185072153  1.0000
  H   H25       1.0  0.34687493215706766  0.44277730922184855  0.4336595103422194  1.0000
  H   H26       1.0  0.30021862332262583  0.23791290620712502  0.5493635971130446  1.0000
  H   H27       1.0  0.17422526160204233  0.13999594179100838  0.48360859117431265  1.0000
  H   H28       1.0  0.09486847936317155  0.2450544694195762  0.30331135291080713  1.0000
  Zn  Zn1       1.0  0.8374072788549476  0.45766903337781417  0.6353316960890751  1.0000
  Zn  Zn2       1.0  0.005529318888334966  0.4650084906924741  0.6490545285477898  1.0000
  C   C41       1.0  0.9214227721053364  0.45620864065315603  0.8793873652990953  1.0000
  C   C42       1.0  0.9215156614639718  0.4664706023037932  0.4049991360145462  1.0000
  C   C43       1.0  0.9214638727946455  0.6985442901849086  0.6369255373125  1.0000
  C   C44       1.0  0.9214745034265976  0.22413338988527087  0.6474610291662937  1.0000
  O   O3        1.0  0.9853060772084462  0.47099581003294033  0.4585912935597052  1.0000
  O   O4        1.0  0.985233094763452  0.4572529313533047  0.8362101466077487  1.0000
  O   O5        1.0  0.9852654237449631  0.6529419958032461  0.6404204343189766  1.0000
  O   O6        1.0  0.9852736908776092  0.27530675235146806  0.6543809037888837  1.0000
  O   O7        1.0  0.8576628494938735  0.6473707692156365  0.6300053161582209  1.0000
  O   O8        1.0  0.8576305204886276  0.4516832651492808  0.8257949585920805  1.0000
  O   O9        1.0  0.8577035032989779  0.4654260982863725  0.4481745441873384  1.0000
  O   O10       1.0  0.8576711169456669  0.26973703133324745  0.6439642517863502  1.0000
