data_image0
_chemical_formula_structural       NC12NC2H8C7OC3FC3H9C6NCOC6H11Zn2C4O8
_chemical_formula_sum              "N3 C44 H28 O10 F1 Zn2"
_cell_length_a       19.240039667572717
_cell_length_b       10.29937835083307
_cell_length_c       10.299662537453274
_cell_angle_alpha    85.53091033731847
_cell_angle_beta     89.98643935911937
_cell_angle_gamma    90.0188676237696

_space_group_name_H-M_alt    "P 1"
_space_group_IT_number       1

loop_
  _space_group_symop_operation_xyz
  'x, y, z'

loop_
  _atom_site_type_symbol
  _atom_site_label
  _atom_site_symmetry_multiplicity
  _atom_site_fract_x
  _atom_site_fract_y
  _atom_site_fract_z
  _atom_site_occupancy
  N   N1        1.0  0.6549092928947571  0.4218739511854064  0.5672617773639381  1.0000
  C   C1        1.0  0.5947609241026688  0.42187403520108835  0.5672616954158927  1.0000
  C   C2        1.0  0.5199428869995883  0.42187415254351324  0.5672615580952904  1.0000
  C   C3        1.0  0.4834446990353586  0.3573670957422066  0.670682782514354  1.0000
  C   C4        1.0  0.4107739204161225  0.3572561771705538  0.6707693389425029  1.0000
  C   C5        1.0  0.37361065210743816  0.42187424519858574  0.567261330398938  1.0000
  C   C6        1.0  0.41082306219427317  0.48649250014714185  0.4637535163782789  1.0000
  C   C7        1.0  0.4834937200817123  0.48638134601996086  0.4638401953359612  1.0000
  C   C8        1.0  0.29640556166603793  0.42187416657024635  0.5672612349905737  1.0000
  C   C9        1.0  0.2591924769906745  0.30859285894627164  0.6091454058844226  1.0000
  C   C10       1.0  0.1865218190298703  0.30869979814161463  0.6090540668303424  1.0000
  C   C11       1.0  0.1500732747123465  0.421874037368982  0.5672612959164218  1.0000
  C   C12       1.0  0.07525523750582  0.4218739235273157  0.5672615445944242  1.0000
  N   N2        1.0  0.0151069206201037  0.42187388262319847  0.567261753022084  1.0000
  C   C13       1.0  0.18657224127150868  0.5350483524471168  0.5254684721023035  1.0000
  C   C14       1.0  0.2592429679650857  0.5351554718323914  0.52537697043056  1.0000
  H   H1        1.0  0.5111405307597195  0.30742407286656825  0.751431089231567  1.0000
  H   H2        1.0  0.3836615787121971  0.30811084994242566  0.7526330831625394  1.0000
  H   H3        1.0  0.3837488731212854  0.535637854448068  0.3818897213058725  1.0000
  H   H4        1.0  0.5112276597677962  0.5363242685245295  0.38309216443034444  1.0000
  H   H5        1.0  0.2862660826293832  0.21942198523097933  0.6403235548465716  1.0000
  H   H6        1.0  0.1587873350942025  0.22042775047605834  0.6412651004486187  1.0000
  H   H7        1.0  0.1588769017532162  0.6233203755692924  0.49325745303746826  1.0000
  H   H8        1.0  0.2863558411632213  0.6243264247445266  0.49419877668721424  1.0000
  C   C15       1.0  0.8349381797052284  0.040488934516230035  0.5673257649067629  1.0000
  C   C16       1.0  0.762424442790971  0.04050272146303424  0.5513006955735613  1.0000
  C   C17       1.0  0.7257620868554822  0.9232212987121259  0.5446954717699377  1.0000
  C   C18       1.0  0.762594388253406  0.8052587158979828  0.5513075709213837  1.0000
  C   C19       1.0  0.8350846907509222  0.8032489522590363  0.5672089690402289  1.0000
  C   C20       1.0  0.8708156644572278  0.9213840023259056  0.5754679959596354  1.0000
  C   C21       1.0  0.6492786405781327  0.9231987572225147  0.5264008802764781  1.0000
  O   O1        1.0  0.6224413940171594  0.838533836639261  0.4597386521558957  1.0000
  C   C22       1.0  0.6032404490989678  0.01912439617431483  0.5837408634499177  1.0000
  C   C23       1.0  0.5413365481660765  0.059146934441327126  0.5199588472105163  1.0000
  C   C24       1.0  0.49717951095119617  0.1483831396581623  0.5740207505370059  1.0000
  F   F1        1.0  0.43788501653111206  0.18709734580726334  0.5113001136801198  1.0000
  C   C25       1.0  0.5140809949736752  0.19763453867547676  0.6926280136945604  1.0000
  C   C26       1.0  0.5749869489380176  0.1573591879634113  0.7576246154811037  1.0000
  C   C27       1.0  0.619287647645726  0.06819443586518092  0.7039674317646185  1.0000
  H   H9        1.0  0.9719017272493129  0.2479383829662971  0.5955708379614928  1.0000
  H   H10       1.0  0.7344604976106182  0.1320175304386042  0.5424874026669513  1.0000
  H   H11       1.0  0.7344584037086045  0.714792446907149  0.5452551542400821  1.0000
  H   H12       1.0  0.9267183669211733  0.9205693705679495  0.587821391420279  1.0000
  H   H13       1.0  0.8629977047346423  0.47510548317802725  0.5722214743323957  1.0000
  H   H14       1.0  0.5275004818489061  0.02218033448464185  0.42779877483346707  1.0000
  H   H15       1.0  0.4798795368648611  0.2666065404112923  0.734507771250841  1.0000
  H   H16       1.0  0.5877484921017371  0.1948128695233291  0.8499982622577693  1.0000
  H   H17       1.0  0.6656001741404945  0.036612192141412425  0.7571205704885315  1.0000
  C   C28       1.0  0.8350593128489258  0.4220094629290536  0.18589136026812092  1.0000
  C   C29       1.0  0.9060144135536016  0.45438532471357607  0.18207240544215209  1.0000
  C   C30       1.0  0.9419624165085297  0.46881097634582636  0.06346552562202756  1.0000
  C   C31       1.0  0.9058927370248306  0.4540752389905629  0.9469291563758615  1.0000
  C   C32       1.0  0.8349635915945987  0.4217283826663716  0.9486433596527291  1.0000
  C   C33       1.0  0.8000065903136576  0.4054335651287595  0.06869288893856296  1.0000
  N   N3        1.0  0.014343913260998153  0.5038979560827861  0.06297656430112708  1.0000
  C   C34       1.0  0.0635262008234696  0.46404630926588375  0.9687696552403526  1.0000
  O   O2        1.0  0.05083072626387053  0.36548413706953586  0.9072332331385318  1.0000
  C   C35       1.0  0.13026967339799111  0.5343778379527229  0.9464084377982602  1.0000
  C   C36       1.0  0.13867920604741535  0.6624532393729075  0.9827426368377541  1.0000
  C   C37       1.0  0.20174410969961443  0.7280114062806384  0.9605419952869769  1.0000
  C   C38       1.0  0.25690507666392826  0.6669819267370507  0.9015764975231302  1.0000
  C   C39       1.0  0.24905979712624116  0.540352966670365  0.8642361089738944  1.0000
  C   C40       1.0  0.1861133090966025  0.4743377492209828  0.8861077410244733  1.0000
  H   H18       1.0  0.7010543120019636  0.36214394991700694  0.40026541333447097  1.0000
  H   H19       1.0  0.9338634418639964  0.467605024796649  0.2714907519176071  1.0000
  H   H20       1.0  0.9328155821775052  0.47003980038708115  0.8548135064546516  1.0000
  H   H21       1.0  0.745310398879293  0.38045847228738006  0.07077276309480451  1.0000
  H   H22       1.0  0.8075310983809908  0.41100091612784806  0.6217214333534944  1.0000
  H   H23       1.0  0.03332121996219839  0.5511036787614509  0.1418919235548226  1.0000
  H   H24       1.0  0.09645819249398868  0.7129905063873314  0.026508757482850642  1.0000
  H   H25       1.0  0.20774195775797244  0.8264949239351189  0.9886427681533054  1.0000
  H   H26       1.0  0.30564864456028573  0.7179621093014756  0.8844511672982183  1.0000
  H   H27       1.0  0.29179520469365716  0.4932331478849721  0.8182724842233369  1.0000
  H   H28       1.0  0.1813064621246976  0.3760768614637511  0.8566318964775084  1.0000
  Zn  Zn1       1.0  0.758854555124736  0.4218704612920956  0.5672692594354038  1.0000
  Zn  Zn2       1.0  0.9111616737957161  0.42186677468421774  0.56726487166971  1.0000
  C   C41       1.0  0.8349791227056265  0.41660762815430563  0.8044676979153929  1.0000
  C   C42       1.0  0.8350387697026133  0.4271312464234207  0.3300665603596944  1.0000
  C   C43       1.0  0.8350540799376805  0.6590729580731198  0.5620557733025373  1.0000
  C   C44       1.0  0.834963760190351  0.18466435611201315  0.5724785544529036  1.0000
  O   O3        1.0  0.8928316319270427  0.42884309872352855  0.37845141030056384  1.0000
  O   O4        1.0  0.8927838392643536  0.41489199817808986  0.7560791440589354  1.0000
  O   O5        1.0  0.8928435888393137  0.6106858180013952  0.560329799645128  1.0000
  O   O6        1.0  0.8927718303939877  0.23304928822797644  0.5742006573379679  1.0000
  O   O7        1.0  0.7772443465515206  0.6106879477510108  0.5603334737618122  1.0000
  O   O8        1.0  0.777184597281825  0.41489568832297286  0.7560827486899315  1.0000
  O   O9        1.0  0.7772323901780395  0.4288467441859072  0.3784534535087789  1.0000
  O   O10       1.0  0.7771725886281357  0.23305292436527592  0.5742027979172526  1.0000
