data_image0
_chemical_formula_structural       NC12NC2H8C6SCOC6H10C7OC3FC3H9Zn2C4O8
_chemical_formula_sum              "N2 C44 H27 S1 O10 F1 Zn2"
_cell_length_a       17.80743265337812
_cell_length_b       10.302038109246572
_cell_length_c       10.29938172300155
_cell_angle_alpha    85.58271297890445
_cell_angle_beta     91.51787109396743
_cell_angle_gamma    89.45358301258409

_space_group_name_H-M_alt    "P 1"
_space_group_IT_number       1

loop_
  _space_group_symop_operation_xyz
  'x, y, z'

loop_
  _atom_site_type_symbol
  _atom_site_label
  _atom_site_symmetry_multiplicity
  _atom_site_fract_x
  _atom_site_fract_y
  _atom_site_fract_z
  _atom_site_occupancy
  N   N1        1.0  0.7079059163416733  0.40593105557994935  0.6015835369433675  1.0000
  C   C1        1.0  0.6571025015500286  0.4354623927088279  0.5328911467525985  1.0000
  C   C2        1.0  0.5938980369945278  0.4721972335711435  0.4474464607975297  1.0000
  C   C3        1.0  0.6056548552639917  0.5261674110183201  0.3208383380134674  1.0000
  C   C4        1.0  0.5443570846547416  0.5613997333091818  0.23778934080994607  1.0000
  C   C5        1.0  0.47114834639841696  0.5429250837587725  0.28068862209843304  1.0000
  C   C6        1.0  0.45841465851284147  0.48883627066964563  0.4077648567996972  1.0000
  C   C7        1.0  0.5205697484392591  0.4536071966028248  0.4907973432510935  1.0000
  C   C8        1.0  0.3806370529310995  0.46924860978548644  0.4535241850123364  1.0000
  C   C9        1.0  0.3618363112488459  0.4964662022144779  0.5805693794214484  1.0000
  C   C10       1.0  0.2885976283371258  0.478033128043152  0.6235092289565516  1.0000
  C   C11       1.0  0.2332165403071303  0.4321285001395121  0.5402417912920525  1.0000
  C   C12       1.0  0.157840932363778  0.41314315017404146  0.5845824461457596  1.0000
  N   N2        1.0  0.0972442813433217  0.3978802056364974  0.6202292823027822  1.0000
  C   C13       1.0  0.25132567333654204  0.40474219746229845  0.4137395260888208  1.0000
  C   C14       1.0  0.3245115436208297  0.4231899773429091  0.37054379855206143  1.0000
  H   H1        1.0  0.6621285973130218  0.5409773549377752  0.28640453249902786  1.0000
  H   H2        1.0  0.5535780636640559  0.6034575458965075  0.1400193286279261  1.0000
  H   H3        1.0  0.4245246149239236  0.5725339370963687  0.21510410776150635  1.0000
  H   H4        1.0  0.5120469212422836  0.41016437134068306  0.5884427005682646  1.0000
  H   H5        1.0  0.403509277592251  0.5336560775154544  0.6461464681106048  1.0000
  H   H6        1.0  0.2751430165998612  0.49990263942237245  0.7215188880782932  1.0000
  H   H7        1.0  0.20893599315295183  0.3688194226607937  0.3485755754721527  1.0000
  H   H8        1.0  0.337437436257327  0.3997853782009313  0.27283723134671467  1.0000
  C   C15       1.0  0.9025075485989023  0.020628590598368968  0.6108629959372835  1.0000
  C   C16       1.0  0.8382977944454171  0.026705168043584804  0.5282689972687409  1.0000
  C   C17       1.0  0.8067031419078584  0.912762675227554  0.4867066647539695  1.0000
  C   C18       1.0  0.8385394376364237  0.7915675588694044  0.5282265640134127  1.0000
  C   C19       1.0  0.9026498618576115  0.783172569218998  0.6109613850896243  1.0000
  C   C20       1.0  0.9343419721748698  0.8983621704694144  0.6517675005004646  1.0000
  S   S1        1.0  0.7252003536554859  0.921956198998235  0.3801951574927951  1.0000
  C   C21       1.0  0.7804565737025787  0.9292698958968469  0.2364205964779842  1.0000
  O   O1        1.0  0.798578396996128  0.8236153459639765  0.19093878154083255  1.0000
  C   C22       1.0  0.8052436987360673  0.0549064397574599  0.172110631170052  1.0000
  C   C23       1.0  0.8583752487575705  0.056120564648068694  0.07314940523556057  1.0000
  C   C24       1.0  0.8825299694683635  0.17394116660098935  0.012583582729695841  1.0000
  C   C25       1.0  0.853959744482571  0.2917789003568805  0.049716299266402864  1.0000
  C   C26       1.0  0.8010543495901732  0.2920323293228535  0.1473353225068159  1.0000
  C   C27       1.0  0.7766491715052939  0.17452062754856335  0.20820932049090035  1.0000
  H   H9        1.0  0.02344838195459298  0.21648082492334697  0.7667075948881943  1.0000
  H   H10       1.0  0.8127439212098514  0.11974749613929037  0.49576965053230904  1.0000
  H   H11       1.0  0.8132276700903178  0.7043312198056636  0.49525028468060595  1.0000
  H   H12       1.0  0.9838434929343528  0.892757235534517  0.7154386438174254  1.0000
  H   H13       1.0  0.9271556998730541  0.45266347690150344  0.6421013304608614  1.0000
  H   H14       1.0  0.8816196150495634  0.9660672725304922  0.04296526589726146  1.0000
  H   H15       1.0  0.923522973167206  0.17382678594979573  0.9368497750507152  1.0000
  H   H16       1.0  0.8727456328977314  0.3828824313266319  0.002742058711584283  1.0000
  H   H17       1.0  0.7787948549157572  0.38344768640026383  0.1758059879090792  1.0000
  H   H18       1.0  0.7352162809079268  0.1780315185904362  0.2827897325810276  1.0000
  C   C28       1.0  0.9026419172806525  0.40179815115614015  0.22954752487403263  1.0000
  C   C29       1.0  0.9263915448486626  0.27088381058106914  0.23953049688309758  1.0000
  C   C30       1.0  0.9391864446304903  0.2052934809195679  0.12739600596172496  1.0000
  C   C31       1.0  0.9263197465275607  0.2711783591910333  0.004261043572493017  1.0000
  C   C32       1.0  0.9025154412864975  0.4020029637307545  0.9922768476763442  1.0000
  C   C33       1.0  0.8910036509075399  0.4666558477645826  0.10552536764272791  1.0000
  C   C34       1.0  0.9635039675813704  0.06665526419053025  0.13778930136805867  1.0000
  O   O2        1.0  0.9403516321379028  0.993907440528189  0.052490470193796046  1.0000
  C   C35       1.0  0.014091783310859585  0.010549274491486571  0.2448505948075277  1.0000
  C   C36       1.0  0.008015202539479516  0.8787456636077053  0.2898168927645264  1.0000
  C   C37       1.0  0.05604414113678091  0.8245581172571528  0.38966711813543164  1.0000
  F   F1        1.0  0.04936787344821658  0.6976594100116797  0.433000934870704  1.0000
  C   C38       1.0  0.11092638420718592  0.9010282518195218  0.44477271087244885  1.0000
  C   C39       1.0  0.11808461216694677  0.031604336729654126  0.3997930107065175  1.0000
  C   C40       1.0  0.07020472375422071  0.08620047276007359  0.3000209487443084  1.0000
  H   H19       1.0  0.8567197806768188  0.6482591390757724  0.41802314005299035  1.0000
  H   H20       1.0  0.934165145907129  0.21934489692801806  0.3347022023102355  1.0000
  H   H21       1.0  0.9356218156017134  0.22044862441023816  0.917674653103036  1.0000
  H   H22       1.0  0.8726941051309904  0.5675807553429728  0.09702516782339865  1.0000
  H   H23       1.0  0.8927653808449105  0.4519338769357617  0.6602137177795808  1.0000
  H   H24       1.0  0.9656828218470948  0.8181194812260189  0.24840923344815113  1.0000
  H   H25       1.0  0.14813020095694118  0.8590603781033754  0.5219661672058145  1.0000
  H   H26       1.0  0.16100615403724783  0.09047101707921357  0.4418675996025103  1.0000
  H   H27       1.0  0.07760972187995008  0.186982096001729  0.2651269735681945  1.0000
  Zn  Zn1       1.0  0.8202605597602111  0.4036042897607499  0.6069717826853738  1.0000
  Zn  Zn2       1.0  0.9848896316984854  0.4001963833953499  0.6148516281272729  1.0000
  C   C41       1.0  0.9025367268468312  0.3967918807550359  0.8481039095762788  1.0000
  C   C42       1.0  0.9026152626407653  0.4070103934456095  0.3737197149603766  1.0000
  C   C43       1.0  0.9026199317295385  0.6390342067264647  0.6057674652339686  1.0000
  C   C44       1.0  0.9025320012791085  0.1647665087292356  0.6160562256504869  1.0000
  O   O3        1.0  0.9650821908721339  0.40746072249164467  0.42509557853096736  1.0000
  O   O4        1.0  0.9650194548383982  0.3937540500445347  0.8027082924006774  1.0000
  O   O5        1.0  0.9650858014049056  0.5893678096355439  0.6070198588857825  1.0000
  O   O6        1.0  0.9650157881467524  0.2118469733253534  0.6207839119846235  1.0000
  O   O7        1.0  0.8401343471321229  0.5919537009951095  0.6010394961321885  1.0000
  O   O8        1.0  0.8400680008647442  0.39634150131340773  0.7967278606034478  1.0000
  O   O9        1.0  0.8401307371988582  0.4100481280950865  0.4191135853470622  1.0000
  O   O10       1.0  0.8400643344525297  0.21443436966843987  0.6148020161661218  1.0000
