data_image0
_chemical_formula_structural       NC10NC3NCH9C7OC3OC4H12C7OC3FC3H9Zn2C4O8
_chemical_formula_sum              "N3 C45 H30 O11 F1 Zn2"
_cell_length_a       19.437513618241372
_cell_length_b       10.299371110280156
_cell_length_c       10.29938172300155
_cell_angle_alpha    85.59389208423815
_cell_angle_beta     90.33093660507195
_cell_angle_gamma    89.53521497268402

_space_group_name_H-M_alt    "P 1"
_space_group_IT_number       1

loop_
  _space_group_symop_operation_xyz
  'x, y, z'

loop_
  _atom_site_type_symbol
  _atom_site_label
  _atom_site_symmetry_multiplicity
  _atom_site_fract_x
  _atom_site_fract_y
  _atom_site_fract_z
  _atom_site_occupancy
  N   N1        1.0  0.6482324616801057  0.4101132302144177  0.5762088307924951  1.0000
  C   C1        1.0  0.58930154286688  0.4271226087543558  0.5732397532843134  1.0000
  C   C2        1.0  0.5158640878429983  0.44837427473938507  0.5695544060604618  1.0000
  C   C3        1.0  0.4740905658663719  0.347182350927129  0.5578540000085179  1.0000
  C   C4        1.0  0.3982026405641699  0.3572456385697613  0.5506367804523327  1.0000
  C   C5        1.0  0.35863101951889403  0.4381069268063498  0.6164118866238437  1.0000
  C   C6        1.0  0.2824486663840198  0.42949702676497226  0.6079643201520655  1.0000
  C   C7        1.0  0.24929743949141434  0.3081537398754315  0.612558303352158  1.0000
  C   C8        1.0  0.17756275598489743  0.3017805933831248  0.6053876853226108  1.0000
  C   C9        1.0  0.13800857593291332  0.4162781215020228  0.5939851218320396  1.0000
  C   C10       1.0  0.0641593957645856  0.40956676344723797  0.586646275590283  1.0000
  N   N2        1.0  0.0047897529615871  0.40417142172389586  0.5807463018555161  1.0000
  C   C11       1.0  0.1704430887042677  0.5373109827671849  0.5901362849554754  1.0000
  C   C12       1.0  0.2421622017029662  0.5439381314473777  0.5973690274762395  1.0000
  C   C13       1.0  0.3873167792309654  0.5304086374411454  0.7063689664228308  1.0000
  N   N3        1.0  0.4443119817635462  0.5936170278475505  0.6859905870764935  1.0000
  C   C14       1.0  0.48816316358922274  0.5843346652584793  0.5728797912550649  1.0000
  H   H1        1.0  0.4964637606182959  0.2521242865195068  0.545694172125686  1.0000
  H   H2        1.0  0.3734856282861615  0.2877228180025053  0.49229063531707706  1.0000
  H   H3        1.0  0.2787352368135106  0.21824439601753864  0.623542510621927  1.0000
  H   H4        1.0  0.1529568388842248  0.2075555229489987  0.609236494989017  1.0000
  H   H5        1.0  0.1403196887220152  0.6265658536187864  0.581463948033369  1.0000
  H   H6        1.0  0.2662866510041917  0.6385759965757614  0.5935049260735152  1.0000
  H   H7        1.0  0.3573075034819767  0.5508098623114834  0.7907435144571429  1.0000
  H   H8        1.0  0.5309241002863035  0.6546478344130313  0.5786717764283098  1.0000
  H   H9        1.0  0.4585089250006852  0.612426377736806  0.4822460857124262  1.0000
  C   C15       1.0  0.8264680377858018  0.025771588188572503  0.5783622350650077  1.0000
  C   C16       1.0  0.8185617113506242  0.035157392923776065  0.44227890852306495  1.0000
  C   C17       1.0  0.8137968054992644  0.9227174067454393  0.37380054009831465  1.0000
  C   C18       1.0  0.8185958137662673  0.7998890201445701  0.4425904230033604  1.0000
  C   C19       1.0  0.8265607747592467  0.7885029228488395  0.5786042632395185  1.0000
  C   C20       1.0  0.8302706630430312  0.9020449252878495  0.6457385260623199  1.0000
  C   C21       1.0  0.8061657971950982  0.9324881349183267  0.22995893849679283  1.0000
  O   O1        1.0  0.8343782029787372  0.846963557815109  0.16629615150911592  1.0000
  C   C22       1.0  0.7665215806001846  0.03920049828820704  0.15834484623041045  1.0000
  C   C23       1.0  0.7857716899241233  0.08400863865018549  0.03144950476446606  1.0000
  C   C24       1.0  0.7485688977623424  0.18362491644248613  0.9615964900723695  1.0000
  O   O2        1.0  0.7705538966822141  0.22503509377637676  0.8357806446492977  1.0000
  C   C25       1.0  0.7377713763675212  0.3250465842473389  0.7539299047048744  1.0000
  C   C26       1.0  0.690846448008375  0.23845993758835426  0.019348980020857498  1.0000
  C   C27       1.0  0.6708902266898791  0.19337335503495123  0.1447183033639221  1.0000
  C   C28       1.0  0.7082152269073341  0.09403615749888061  0.21382070890753901  1.0000
  H   H10       1.0  0.842438027366007  0.21538149297768117  0.8349539137619175  1.0000
  H   H11       1.0  0.8168662362903588  0.13010712924322654  0.38922854969704535  1.0000
  H   H12       1.0  0.8154405998821063  0.7130683743582602  0.38982875060755395  1.0000
  H   H13       1.0  0.8363663042299905  0.8940053489493844  0.7506488053246649  1.0000
  H   H14       1.0  0.8301928462350487  0.4566720310156049  0.6307364325466183  1.0000
  H   H15       1.0  0.830262196131783  0.042360110770784276  0.9866436428956997  1.0000
  H   H16       1.0  0.7658512331689545  0.33764688849182534  0.6604180138306406  1.0000
  H   H17       1.0  0.7387778076329529  0.4184979905075188  0.8009609434754679  1.0000
  H   H18       1.0  0.6838568994402252  0.29770688862783556  0.7334799245901498  1.0000
  H   H19       1.0  0.6609699404842461  0.3154446198800507  0.9680812029758386  1.0000
  H   H20       1.0  0.6261398827500823  0.23518731935010373  0.18829914790334756  1.0000
  H   H21       1.0  0.6910377301231282  0.05919769365193961  0.3099790890737142  1.0000
  C   C29       1.0  0.8265723093215264  0.40703514447000466  0.1971162779683555  1.0000
  C   C30       1.0  0.8483287200827565  0.2762175378579179  0.20621319924273496  1.0000
  C   C31       1.0  0.8600495487396739  0.2106805311664688  0.093602320132119  1.0000
  C   C32       1.0  0.8482629525125246  0.2765117692601329  0.9709464048298324  1.0000
  C   C33       1.0  0.8264564722440678  0.40723932142533936  0.9598502232551849  1.0000
  C   C34       1.0  0.8159107641044405  0.47184560993886193  0.07352845846346656  1.0000
  C   C35       1.0  0.8823264199243386  0.07214023751435361  0.10308748138687074  1.0000
  O   O3        1.0  0.861127046794148  0.9992490848563511  0.018613316493907517  1.0000
  C   C36       1.0  0.9286576140365039  0.016294799109125124  0.20830491296602438  1.0000
  C   C37       1.0  0.9230991635650133  0.8844259912820419  0.2534656589417301  1.0000
  C   C38       1.0  0.9670868380166617  0.8304855917879107  0.35156511084012365  1.0000
  F   F1        1.0  0.9609789512826316  0.7035196363505423  0.3951160607896955  1.0000
  C   C39       1.0  0.017344344628468233  0.9072720010375938  0.40469711597573177  1.0000
  C   C40       1.0  0.023893430387411208  0.03791884706342885  0.35948353767716057  1.0000
  C   C41       1.0  0.9800422362770934  0.09226874434213928  0.2614569284889525  1.0000
  H   H22       1.0  0.7845045736081904  0.6533074550951723  0.3873038530834456  1.0000
  H   H23       1.0  0.8554503402482934  0.22470816062935017  0.301093191740359  1.0000
  H   H24       1.0  0.8567843070633823  0.22582005602799615  0.8840130794163423  1.0000
  H   H25       1.0  0.7991378696661361  0.5726959408561221  0.06571135045557353  1.0000
  H   H26       1.0  0.8175248856107658  0.45712958867723286  0.6281501041782822  1.0000
  H   H27       1.0  0.8843340668484783  0.8235554545279535  0.2135799686124411  1.0000
  H   H28       1.0  0.05141774728966286  0.8654955719535972  0.48053440253661894  1.0000
  H   H29       1.0  0.06319816887036778  0.09703264560352776  0.4000144675644075  1.0000
  H   H30       1.0  0.9868187829151825  0.19311517633670316  0.22631431995677342  1.0000
  Zn  Zn1       1.0  0.7511271978268163  0.4083950654127786  0.5775257547352961  1.0000
  Zn  Zn2       1.0  0.9018950201073755  0.40587891978467794  0.5794400443451753  1.0000
  C   C42       1.0  0.8264762224015656  0.40202707877308175  0.8156754970254432  1.0000
  C   C43       1.0  0.8265476420924208  0.41224851760932246  0.3412904509447363  1.0000
  C   C44       1.0  0.8265404841924556  0.6443291293918472  0.5733833097977361  1.0000
  C   C45       1.0  0.8264833286548017  0.16994490755798708  0.5835827062624288  1.0000
  O   O4        1.0  0.8837549656785361  0.41303764333952353  0.39040308157577575  1.0000
  O   O5        1.0  0.8836981873341079  0.3993272769037397  0.7680153937596734  1.0000
  O   O6        1.0  0.8837493080442193  0.5949892603396258  0.5723627289511295  1.0000
  O   O7        1.0  0.8837037935374946  0.21737567002642133  0.5860556483598811  1.0000
  O   O8        1.0  0.7693183729470398  0.5968983160310843  0.5709101500605072  1.0000
  O   O9        1.0  0.7692672524340005  0.40123789288781664  0.7665627461189821  1.0000
  O   O10       1.0  0.7693240310557665  0.41494821364862466  0.38894887252861454  1.0000
  O   O11       1.0  0.7692728588959981  0.21928623107278744  0.5846015366770749  1.0000
