data_image0
_chemical_formula_structural       NC10NC3NH7C7OC4NC3H9C7OC3OC4H12Zn2C4O8
_chemical_formula_sum              "N4 C45 H28 O11 Zn2"
_cell_length_a       19.210446455230148
_cell_length_b       10.299371701877257
_cell_length_c       10.299374482448636
_cell_angle_alpha    85.56746279880974
_cell_angle_beta     89.97251480092041
_cell_angle_gamma    89.95709994445667

_space_group_name_H-M_alt    "P 1"
_space_group_IT_number       1

loop_
  _space_group_symop_operation_xyz
  'x, y, z'

loop_
  _atom_site_type_symbol
  _atom_site_label
  _atom_site_symmetry_multiplicity
  _atom_site_fract_x
  _atom_site_fract_y
  _atom_site_fract_z
  _atom_site_occupancy
  N   N1        1.0  0.6558426710000533  0.420531505319806  0.5678351937477952  1.0000
  C   C1        1.0  0.5956141139889661  0.4227389345862349  0.5680672214938254  1.0000
  C   C2        1.0  0.5208096649468889  0.4254757427086442  0.5683546757406521  1.0000
  C   C3        1.0  0.48519787299324096  0.5417009617765942  0.5835128601311506  1.0000
  C   C4        1.0  0.4125324028239909  0.5418525104405205  0.5834603210160456  1.0000
  C   C5        1.0  0.3756429054668521  0.4261846787417931  0.5684414417422625  1.0000
  C   C6        1.0  0.298320785024173  0.42482825809967517  0.5682903090373539  1.0000
  C   C7        1.0  0.2605770323897159  0.5284136534920822  0.5049675068024873  1.0000
  C   C8        1.0  0.1877986792089066  0.5270114677140316  0.5048578750443538  1.0000
  C   C9        1.0  0.1517626777733449  0.42228140609091347  0.5680201488980652  1.0000
  C   C10       1.0  0.0768331650860683  0.42097937530676344  0.5678828014008792  1.0000
  N   N2        1.0  0.0165953186859166  0.419932498339213  0.5677724088726368  1.0000
  C   C11       1.0  0.1887827778775537  0.31882170801573206  0.6313179915706  1.0000
  C   C12       1.0  0.2615629698101334  0.3199496163920261  0.6314777623443395  1.0000
  C   C13       1.0  0.4138645347588765  0.3117796195467173  0.5535721500866466  1.0000
  N   N3        1.0  0.48463448131190107  0.31422452162378334  0.5537386840837597  1.0000
  H   H1        1.0  0.5132979175176494  0.6311303763267813  0.5955969957108818  1.0000
  H   H2        1.0  0.3852624304212091  0.6318634259633251  0.596939452548924  1.0000
  H   H3        1.0  0.2873124083189128  0.6096790399283842  0.4540074252574373  1.0000
  H   H4        1.0  0.1596601618646729  0.6074488189892606  0.4552279005569899  1.0000
  H   H5        1.0  0.1614079692224415  0.237420997392642  0.6808480976926254  1.0000
  H   H6        1.0  0.2890564068069874  0.23963108141137845  0.682545554139429  1.0000
  H   H7        1.0  0.3876003121903432  0.22090580584559816  0.5400464291456892  1.0000
  C   C14       1.0  0.8361859315174991  0.03886166910641009  0.5676768117716819  1.0000
  C   C15       1.0  0.839591272028515  0.04822934670990153  0.43100934967954796  1.0000
  C   C16       1.0  0.8405184374867446  0.9357865584727074  0.3620158083426632  1.0000
  C   C17       1.0  0.8395998289653674  0.8129609414094383  0.43132674865264864  1.0000
  C   C18       1.0  0.8362587065467413  0.8015923432992126  0.5679420149931  1.0000
  C   C19       1.0  0.8343879480340546  0.9151447735343943  0.6353107927843846  1.0000
  C   C20       1.0  0.8448452882270104  0.9455331943403367  0.21776298257833315  1.0000
  O   O1        1.0  0.8783574778208135  0.8597437737324671  0.16281048753308025  1.0000
  C   C21       1.0  0.8111429290746206  0.05252187308556744  0.13585547895270023  1.0000
  C   C22       1.0  0.8409759181319059  0.09714510676115484  0.01587828122210655  1.0000
  C   C23       1.0  0.8091088984811879  0.1971199372502459  0.937091907009739  1.0000
  C   C24       1.0  0.8402926862694965  0.24292549819690512  0.8149282934475548  1.0000
  N   N4        1.0  0.8653630611237301  0.27974353784914907  0.7167264629769154  1.0000
  C   C25       1.0  0.7468893651474141  0.25239213712837394  0.9772751573111864  1.0000
  C   C26       1.0  0.7164690530641357  0.2075596646814697  0.09551288227503862  1.0000
  C   C27       1.0  0.7481362110832707  0.10788264317422325  0.17428789349349194  1.0000
  H   H8        1.0  0.8308301024296518  0.22849695546534532  0.8256694817588162  1.0000
  H   H9        1.0  0.8423061936499601  0.1431611253238012  0.37812148807143764  1.0000
  H   H10       1.0  0.8408304939729092  0.7261339577609146  0.3783135072282209  1.0000
  H   H11       1.0  0.8317630601347134  0.9071190862455106  0.7406716647175828  1.0000
  H   H12       1.0  0.8355610783858917  0.4697636491906186  0.6204681662186307  1.0000
  H   H13       1.0  0.8892549779660602  0.05498129397814866  0.9842925321075722  1.0000
  H   H14       1.0  0.7218057947049683  0.32966431386387685  0.9170391624546226  1.0000
  H   H15       1.0  0.6680713300953403  0.24974013347338708  0.12594562918991037  1.0000
  H   H16       1.0  0.7229724727231386  0.07319313720523679  0.26444990987979655  1.0000
  C   C28       1.0  0.8362868108811197  0.42031439952770655  0.18642689867815876  1.0000
  C   C29       1.0  0.9089976880023388  0.4348580379281344  0.18404796985442307  1.0000
  C   C30       1.0  0.9455832518885003  0.4436649839130642  0.06556084319786892  1.0000
  C   C31       1.0  0.9088312954247069  0.4347944432402755  0.9488091258531832  1.0000
  C   C32       1.0  0.8361578156960957  0.42013962015431994  0.949191887689536  1.0000
  C   C33       1.0  0.8002864139313459  0.41332545791365516  0.06850705818201686  1.0000
  C   C34       1.0  0.02244248194784748  0.45766340655070525  0.06301336606121177  1.0000
  O   O2        1.0  0.0565884393830709  0.40406454499911737  0.977141674340638  1.0000
  C   C35       1.0  0.06056189995645922  0.5324816834367674  0.15780059299294757  1.0000
  C   C36       1.0  0.1284721816738903  0.4956509977851571  0.19594028858328838  1.0000
  C   C37       1.0  0.1656602250488759  0.5658534810785101  0.28416158784014467  1.0000
  O   O3        1.0  0.23300465842922669  0.5238493661588812  0.3194285380493336  1.0000
  C   C38       1.0  0.2766240188724447  0.5856477851411133  0.4078347872509196  1.0000
  C   C39       1.0  0.13455318177114228  0.6752920021967777  0.3341196934973609  1.0000
  C   C40       1.0  0.06745575523311298  0.7134545543257109  0.29546976576160633  1.0000
  C   C41       1.0  0.03066945528113485  0.6430183942321723  0.20748934811424724  1.0000
  H   H17       1.0  0.6991912443853882  0.3908810348860796  0.3983914444184511  1.0000
  H   H18       1.0  0.9373488225223989  0.43790295760207787  0.27463539126261827  1.0000
  H   H19       1.0  0.9370221169290958  0.4406032299398752  0.8574126435472258  1.0000
  H   H20       1.0  0.7442316399339948  0.4021125238526184  0.06953732276182012  1.0000
  H   H21       1.0  0.8083054458333687  0.4134262851492847  0.6219656050255469  1.0000
  H   H22       1.0  0.1526046539649366  0.4112986456301828  0.15802826184163732  1.0000
  H   H23       1.0  0.32672529728230404  0.5322072770306112  0.41776620022133604  1.0000
  H   H24       1.0  0.2514877802140745  0.5838885786052204  0.5050732404847567  1.0000
  H   H25       1.0  0.287335544067127  0.6876359746934408  0.37020685231948347  1.0000
  H   H26       1.0  0.16183639823482698  0.7316845571323565  0.4023255211535741  1.0000
  H   H27       1.0  0.04397708130166689  0.7982948717762639  0.33341077979538425  1.0000
  H   H28       1.0  0.9791980283527583  0.675830705582366  0.17728551630989742  1.0000
  Zn  Zn1       1.0  0.7599480899978442  0.4203551790597919  0.5678245735192502  1.0000
  Zn  Zn2       1.0  0.9124898809398324  0.4200982395752113  0.5677936615780974  1.0000
  C   C42       1.0  0.836180158537595  0.4149989718326952  0.8050112094576043  1.0000
  C   C43       1.0  0.836259478286483  0.42545608259302936  0.3306071533429473  1.0000
  C   C44       1.0  0.8362422409492704  0.657421217706023  0.5627165339201436  1.0000
  C   C45       1.0  0.8361973436623766  0.18303227648310916  0.572901897589523  1.0000
  O   O4        1.0  0.8941391193617201  0.42707850544169434  0.37898363102074173  1.0000
  O   O5        1.0  0.8940762071802902  0.4131805582199095  0.7566108961317008  1.0000
  O   O6        1.0  0.8941255589155844  0.6089395886153912  0.5609562319878463  1.0000
  O   O7        1.0  0.8940897155915989  0.231319484446457  0.574638197800234  1.0000
  O   O8        1.0  0.7783482032910524  0.6091339342776425  0.560980037300832  1.0000
  O   O9        1.0  0.7782988517131632  0.41337646420784946  0.756634632739289  1.0000
  O   O10       1.0  0.778361764200619  0.42727436653118755  0.3790058061562085  1.0000
  O   O11       1.0  0.7783123604102992  0.23151533622480214  0.574660470303781  1.0000
