data_image0
_chemical_formula_structural       NC10NC3NH7C7OC3FC3H9C7OC3NC3H11Zn2C4O8
_chemical_formula_sum              "N4 C43 H27 O10 F1 Zn2"
_cell_length_a       19.210446455230148
_cell_length_b       10.29937835083307
_cell_length_c       10.298749378158432
_cell_angle_alpha    85.54775683836141
_cell_angle_beta     89.99958857852239
_cell_angle_gamma    89.96745330776054

_space_group_name_H-M_alt    "P 1"
_space_group_IT_number       1

loop_
  _space_group_symop_operation_xyz
  'x, y, z'

loop_
  _atom_site_type_symbol
  _atom_site_label
  _atom_site_symmetry_multiplicity
  _atom_site_fract_x
  _atom_site_fract_y
  _atom_site_fract_z
  _atom_site_occupancy
  N   N1        1.0  0.6556175240730946  0.42036268688415124  0.567054192323126  1.0000
  C   C1        1.0  0.5953892396653508  0.4225702361111323  0.5672851256093923  1.0000
  C   C2        1.0  0.5205851285463722  0.4253071929287999  0.5675712229159462  1.0000
  C   C3        1.0  0.4849884347133626  0.541539185721448  0.5826719246260863  1.0000
  C   C4        1.0  0.4123229659169389  0.5416907319701068  0.5826193070517491  1.0000
  C   C5        1.0  0.3754184597177277  0.4260161693937059  0.5676576380157814  1.0000
  C   C6        1.0  0.2980961695985678  0.42465967370722546  0.5675071774193372  1.0000
  C   C7        1.0  0.2603464122010449  0.5282391540622224  0.5041294180381495  1.0000
  C   C8        1.0  0.1875678954222852  0.526836897956976  0.5040204833249733  1.0000
  C   C9        1.0  0.1515377472060589  0.4221126829104309  0.5672382799090716  1.0000
  C   C10       1.0  0.0766080736026885  0.42081058129276916  0.5671015779447091  1.0000
  N   N2        1.0  0.0163700978305437  0.4197636473788189  0.5669917044486954  1.0000
  C   C11       1.0  0.1885638579275797  0.3186589007655183  0.6305910155551819  1.0000
  C   C12       1.0  0.2613441995886672  0.3197868768481189  0.6307502291022036  1.0000
  C   C13       1.0  0.4136252403811395  0.311604450567019  0.5528449313233783  1.0000
  N   N3        1.0  0.4843954659524966  0.3140494714386306  0.5530102487334765  1.0000
  H   H1        1.0  0.5131002030306786  0.6309738777507814  0.5947118505973812  1.0000
  H   H2        1.0  0.3850651269757413  0.6317071640711098  0.5960540053477916  1.0000
  H   H3        1.0  0.2870767525914106  0.6094997006146183  0.4531261590538269  1.0000
  H   H4        1.0  0.1594245992308505  0.6072695848011176  0.45434781066645624  1.0000
  H   H5        1.0  0.1611937095036687  0.23726280243731934  0.6801642975565774  1.0000
  H   H6        1.0  0.2888427911275105  0.23947323448028168  0.6818607292775072  1.0000
  H   H7        1.0  0.3873487889617039  0.2207250802563978  0.5393640735896872  1.0000
  C   C14       1.0  0.8359237722367536  0.038678325364654764  0.5670869828624823  1.0000
  C   C15       1.0  0.7632949591365334  0.038807970148089455  0.551073428753857  1.0000
  C   C16       1.0  0.726574735793052  0.9215855653313967  0.544474125250018  1.0000
  C   C17       1.0  0.7634651678556337  0.8035636840129184  0.5510802750995272  1.0000
  C   C18       1.0  0.8360704844803317  0.8014380650587783  0.5669701539343523  1.0000
  C   C19       1.0  0.8718582378337366  0.919516133342337  0.5752235305714559  1.0000
  C   C20       1.0  0.6499696213654916  0.9216848139234458  0.5261915879512873  1.0000
  O   O1        1.0  0.6230770388487656  0.837044874197531  0.4595296336546635  1.0000
  C   C21       1.0  0.6038725392282004  0.017703906687048354  0.5835433153558927  1.0000
  C   C22       1.0  0.5418598840474038  0.05781058573833309  0.5197678395501388  1.0000
  C   C23       1.0  0.4976461662240962  0.14713615058704566  0.5738409458245131  1.0000
  F   F1        1.0  0.4382471603054252  0.1859304712264822  0.5111264668551019  1.0000
  C   C24       1.0  0.5145985817273886  0.1963943991672048  0.6924530681361587  1.0000
  C   C25       1.0  0.5756120074471043  0.15603692506923772  0.7574433822016422  1.0000
  C   C26       1.0  0.6199696930276886  0.06678269372337597  0.7037749972150364  1.0000
  H   H8        1.0  0.9731042504597297  0.24590834597977262  0.5953101731840158  1.0000
  H   H9        1.0  0.7352860836654047  0.13036668204191493  0.5422644036125566  1.0000
  H   H10       1.0  0.7352845674377614  0.713142417669402  0.5450323372939687  1.0000
  H   H11       1.0  0.9278496553296699  0.9186121835833454  0.5875680486009476  1.0000
  H   H12       1.0  0.8640275525760617  0.47324965763070553  0.5719781507081503  1.0000
  H   H13       1.0  0.5279831595331896  0.020839833028154064  0.4276041134087676  1.0000
  H   H14       1.0  0.48035322351358106  0.265435615582968  0.7343415032719565  1.0000
  H   H15       1.0  0.5884125982501724  0.19349660911140387  0.8498208829950569  1.0000
  H   H16       1.0  0.6663647232894957  0.03513910315424695  0.7569235997319619  1.0000
  C   C27       1.0  0.8359650359245168  0.42008624078076107  0.18562751020538837  1.0000
  C   C28       1.0  0.8740103214113134  0.5368925988615085  0.17558334061296144  1.0000
  C   C29       1.0  0.8925500357613828  0.5967600583809871  0.053265629963944905  1.0000
  C   C30       1.0  0.8740130972966089  0.5369414576739422  0.9403393032287313  1.0000
  C   C31       1.0  0.8360292142849259  0.4200300995890742  0.9484296174195528  1.0000
  C   C32       1.0  0.8170863526755268  0.3625252351473949  0.0714957520575088  1.0000
  C   C33       1.0  0.9332899357665436  0.7194653826582507  0.04255963834979126  1.0000
  O   O2        1.0  0.9767885519379583  0.7377367047661139  0.9512023814974886  1.0000
  C   C34       1.0  0.9246844960241175  0.8214346486385216  0.13543520259969233  1.0000
  C   C35       1.0  0.8595668187001688  0.8441177032058238  0.19214729218743787  1.0000
  C   C36       1.0  0.8517991706460804  0.9416366115649242  0.27883398054328445  1.0000
  N   N4        1.0  0.7855299526880621  0.9635991721876622  0.3365142657002802  1.0000
  C   C37       1.0  0.9092532150287826  0.01779543612102552  0.3082100265610994  1.0000
  C   C38       1.0  0.9738227322735586  0.997064022605987  0.25103839907138137  1.0000
  C   C39       1.0  0.9815503254052768  0.8998568639973445  0.16472847455882578  1.0000
  H   H17       1.0  0.765000516134165  0.19836447229069964  0.4120464583162402  1.0000
  H   H18       1.0  0.8899158398268362  0.5807137870384349  0.26312002176369154  1.0000
  H   H19       1.0  0.888702254274806  0.5824408883547665  0.8459234750233415  1.0000
  H   H20       1.0  0.7877636164084774  0.27248621212788615  0.0784862039748877  1.0000
  H   H21       1.0  0.764510727110573  0.19888826311899055  0.7564319588348791  1.0000
  H   H22       1.0  0.8146420782190924  0.7871827459924345  0.1681208062540016  1.0000
  H   H23       1.0  0.7423549699206508  0.9073965163383226  0.3153023574660754  1.0000
  H   H24       1.0  0.7791660186751744  0.036131082327148345  0.4009919856494877  1.0000
  H   H25       1.0  0.9039189603749019  0.09342172161904472  0.37493243607309457  1.0000
  H   H26       1.0  0.018004307027991384  0.05646013029147401  0.27365799302571214  1.0000
  H   H27       1.0  0.03211717716751106  0.8851276084402993  0.1217214963959854  1.0000
  Zn  Zn1       1.0  0.7597229233002161  0.42018635227293855  0.5670436599022133  1.0000
  Zn  Zn2       1.0  0.912264681522864  0.4199293982178556  0.5670128751642172  1.0000
  C   C40       1.0  0.8360145500458449  0.41486683841935346  0.8042444807837901  1.0000
  C   C41       1.0  0.8359747208544407  0.42525054794417616  0.3298121811726613  1.0000
  C   C42       1.0  0.8360387449477829  0.6572606030892252  0.5618166251154748  1.0000
  C   C43       1.0  0.8359504736063357  0.18285522298912316  0.572240106334954  1.0000
  O   O3        1.0  0.893866772382921  0.42688055790184065  0.37819019211275906  1.0000
  O   O4        1.0  0.8938981632123962  0.41304082654346375  0.7558427312123965  1.0000
  O   O5        1.0  0.8939169206466123  0.6087768582170971  0.5600805224935748  1.0000
  O   O6        1.0  0.893847962890127  0.23114453561366322  0.5739523034577882  1.0000
  O   O7        1.0  0.7781395898779369  0.608971214966231  0.5601042316123155  1.0000
  O   O8        1.0  0.7781208327348716  0.41323674366688024  0.7558663708408337  1.0000
  O   O9        1.0  0.7780894418115676  0.42707642988220074  0.3782122702158437  1.0000
  O   O10       1.0  0.7780706323223354  0.23134039829766828  0.5739744789383392  1.0000
