data_image0
_chemical_formula_structural       NC11NC3H8C7OC3NC3H11C7OC6OCH12Zn2C4O8
_chemical_formula_sum              "N3 C45 H31 O11 Zn2"
_cell_length_a       17.807433833752565
_cell_length_b       10.298746005989749
_cell_length_c       10.299362532796529
_cell_angle_alpha    85.58216748152913
_cell_angle_beta     88.53944106115836
_cell_angle_gamma    90.6940108729131

_space_group_name_H-M_alt    "P 1"
_space_group_IT_number       1

loop_
  _space_group_symop_operation_xyz
  'x, y, z'

loop_
  _atom_site_type_symbol
  _atom_site_label
  _atom_site_symmetry_multiplicity
  _atom_site_fract_x
  _atom_site_fract_y
  _atom_site_fract_z
  _atom_site_occupancy
  N   N1        1.0  0.7073212438396862  0.43813602355666625  0.5347819544096295  1.0000
  C   C1        1.0  0.6565088218980815  0.40342741922767544  0.6013406301893196  1.0000
  C   C2        1.0  0.5932930423299231  0.36025277546583534  0.6841311289322385  1.0000
  C   C3        1.0  0.6050332109482215  0.2967360122901801  0.8068428076648948  1.0000
  C   C4        1.0  0.5437246286019165  0.2552405640701032  0.8873495371596114  1.0000
  C   C5        1.0  0.470521599898886  0.2769487867450813  0.84578534966062  1.0000
  C   C6        1.0  0.45780458113340006  0.340619968656662  0.7226134933601533  1.0000
  C   C7        1.0  0.3800330273644414  0.3636575431690918  0.6782688004471558  1.0000
  C   C8        1.0  0.3612277571965022  0.3467427038971935  0.5486897611347328  1.0000
  C   C9        1.0  0.2879947754804009  0.3684121812397967  0.5070815002823115  1.0000
  C   C10       1.0  0.2326238929687657  0.40731479242346946  0.5942320424146317  1.0000
  C   C11       1.0  0.1572540408556413  0.4296423594642327  0.5512625589531666  1.0000
  N   N2        1.0  0.09666205352740471  0.4475920645891891  0.5167182215583046  1.0000
  C   C12       1.0  0.2507375371441061  0.4244400581913286  0.7232799724296788  1.0000
  C   C13       1.0  0.323917793461274  0.4027357289605127  0.7651436552741524  1.0000
  C   C14       1.0  0.519970477480153  0.3821108567647882  0.642123179062426  1.0000
  H   H1        1.0  0.661502532122352  0.27933063198559394  0.8402065023610135  1.0000
  H   H2        1.0  0.5529327490526056  0.20581411667492233  0.9820804376966581  1.0000
  H   H3        1.0  0.4238889130530378  0.24240993255385157  0.9092208133858914  1.0000
  H   H4        1.0  0.4028924634499487  0.3150763445973097  0.4799723818381718  1.0000
  H   H5        1.0  0.2745364669012067  0.35449849870253347  0.407047941269286  1.0000
  H   H6        1.0  0.2083558521214373  0.45488312310241086  0.7914825085734252  1.0000
  H   H7        1.0  0.33684778713644226  0.41819489428084755  0.8649945703012796  1.0000
  H   H8        1.0  0.511460999433862  0.4328998471683798  0.5476266842533937  1.0000
  C   C15       1.0  0.9019593359529772  0.0614611705755006  0.5257343939571135  1.0000
  C   C16       1.0  0.9370840213984607  0.07078359077152374  0.40160213553656265  1.0000
  C   C17       1.0  0.9540546676962831  0.9583546898337247  0.3381825273683363  1.0000
  C   C18       1.0  0.9370845771113017  0.8355469890287964  0.401552973314627  1.0000
  C   C19       1.0  0.9020311299641166  0.8242571202585643  0.5257766170133034  1.0000
  C   C20       1.0  0.8845100764716113  0.9377806687336531  0.5869330105414992  1.0000
  C   C21       1.0  0.9917846395025381  0.968023252477779  0.20761821663027624  1.0000
  O   O1        1.0  0.03765044590321409  0.88115165097235  0.18027831903925273  1.0000
  C   C22       1.0  0.9774843415930663  0.0761834368562675  0.10807733932536356  1.0000
  C   C23       1.0  0.9063461081460941  0.13384412734979656  0.09927056972704329  1.0000
  C   C24       1.0  0.8931669565070468  0.23516620636932872  0.003976516610659564  1.0000
  N   N3        1.0  0.8208262604033199  0.29364015886789163  0.9961289002737561  1.0000
  C   C25       1.0  0.9511723011287444  0.27843588494180516  0.9161522968357159  1.0000
  C   C26       1.0  0.021624502087211228  0.2205932095579004  0.9231348491973037  1.0000
  C   C27       1.0  0.0347451715136442  0.11969409266553033  0.018127411860087594  1.0000
  H   H9        1.0  0.8366329217630255  0.2511671278686358  0.761097695630301  1.0000
  H   H10       1.0  0.9520166562874491  0.1656491444160244  0.354688157832886  1.0000
  H   H11       1.0  0.9506263054124076  0.7486699398409314  0.3532274658664689  1.0000
  H   H12       1.0  0.8574389892190373  0.9298427797381172  0.6826182265337759  1.0000
  H   H13       1.0  0.8360803260018945  0.5956137890524441  0.7606803687152002  1.0000
  H   H14       1.0  0.8608608377619013  0.09935457734786035  0.16534263558961437  1.0000
  H   H15       1.0  0.7771861468643215  0.2621451637547596  0.06110391087156364  1.0000
  H   H16       1.0  0.8103932816999186  0.36898067772655296  0.9253755363995215  1.0000
  H   H17       1.0  0.9416932258873315  0.3565347857399719  0.8421059775085875  1.0000
  H   H18       1.0  0.06618893853529917  0.2540240857708296  0.8547732284936194  1.0000
  H   H19       1.0  0.08984445191490664  0.0763923394015582  0.022098499781758152  1.0000
  C   C28       1.0  0.9019365970132869  0.44273716694204857  0.14439134637951168  1.0000
  C   C29       1.0  0.8306180333688449  0.38231947224543994  0.1509843793125114  1.0000
  C   C30       1.0  0.7943232208088703  0.35316206405812345  0.03715330573430742  1.0000
  C   C31       1.0  0.8308296108818729  0.38248818249027483  0.9157202729154617  1.0000
  C   C32       1.0  0.9020538907953867  0.4429810903265008  0.9071196939242658  1.0000
  C   C33       1.0  0.9371347419808317  0.47301068909653265  0.02201599029152046  1.0000
  C   C34       1.0  0.7193945200289714  0.28803924610219567  0.04642871327016351  1.0000
  O   O2        1.0  0.7040382505468497  0.2084530193014278  0.14303301034369786  1.0000
  C   C35       1.0  0.6618897069556101  0.3131960661177804  0.9461834719328981  1.0000
  C   C36       1.0  0.6561241405972144  0.4364389769346555  0.8786049427488902  1.0000
  C   C37       1.0  0.6011379316301246  0.45928515186261776  0.7854619297664343  1.0000
  C   C38       1.0  0.550593506959057  0.36038504368371327  0.7587523345532468  1.0000
  C   C39       1.0  0.5555690285727528  0.23731651561058675  0.8272857460908565  1.0000
  C   C40       1.0  0.6105484932256268  0.21434296705674472  0.9205014693910054  1.0000
  O   O3        1.0  0.49651529484643014  0.388233671510233  0.6642785301783278  1.0000
  C   C41       1.0  0.4417314774782752  0.2971343140586098  0.6274422882926345  1.0000
  H   H20       1.0  0.03664287763164009  0.5562569801495965  0.33925243560029417  1.0000
  H   H21       1.0  0.8028002539988106  0.3589010015964782  0.24480772964690933  1.0000
  H   H22       1.0  0.803971524230459  0.3567536891582537  0.8279108042003727  1.0000
  H   H23       1.0  0.9920792753838983  0.5196723854276615  0.016114044437660624  1.0000
  H   H24       1.0  0.9295030183208106  0.46570763493010037  0.5763782903301329  1.0000
  H   H25       1.0  0.6935771268062466  0.5156059161526676  0.8986961626259697  1.0000
  H   H26       1.0  0.5975674566200759  0.55466585496868  0.7340696525826078  1.0000
  H   H27       1.0  0.5172531515522946  0.15881446525177356  0.8093313774392423  1.0000
  H   H28       1.0  0.6133890451622773  0.11876265244386164  0.9718144089218703  1.0000
  H   H29       1.0  0.4064485375475045  0.34497655903383495  0.5509987804487722  1.0000
  H   H30       1.0  0.40504387404517844  0.26402755162581615  0.7126921875204548  1.0000
  H   H31       1.0  0.4697283995785251  0.21248715049904487  0.5874824232531557  1.0000
  Zn  Zn1       1.0  0.8196765919137079  0.4408613601816296  0.5295766355400833  1.0000
  Zn  Zn2       1.0  0.9843066913208132  0.4448561108100013  0.5219341257215198  1.0000
  C   C42       1.0  0.9020295464915533  0.43776081315133486  0.7629474825836784  1.0000
  C   C43       1.0  0.9019555346723971  0.4479583402694638  0.2885633227775597  1.0000
  C   C44       1.0  0.9020129053225326  0.6800706830647316  0.5205937191861123  1.0000
  C   C45       1.0  0.901972119528428  0.20564690857322687  0.5309171579343441  1.0000
  O   O4        1.0  0.9644381545384306  0.4512209345316487  0.33404846212339767  1.0000
  O   O5        1.0  0.9644973626445964  0.4375291622543305  0.7116614812255575  1.0000
  O   O6        1.0  0.9644830826878651  0.6331974266315947  0.5159591417616145  1.0000
  O   O7        1.0  0.9644523783039627  0.25555267805115567  0.5297507068222704  1.0000
  O   O8        1.0  0.8395308487503845  0.6301647915786746  0.5217600570405154  1.0000
  O   O9        1.0  0.8395451288399313  0.43449808762244957  0.717462327346422  1.0000
  O   O10       1.0  0.8394859205393813  0.44818981414161274  0.33984774685819286  1.0000
  O   O11       1.0  0.8395001443159388  0.2525215484025478  0.5355500889233187  1.0000
