data_image0
_chemical_formula_structural       NC9NC5H8C7OC6OCH12C7OC4NC3H9Zn2C4O8
_chemical_formula_sum              "N3 C46 H29 O11 Zn2"
_cell_length_a       17.807436237873137
_cell_length_b       10.299359160628079
_cell_length_c       10.299375074045738
_cell_angle_alpha    85.54493941547133
_cell_angle_beta     89.38493469783968
_cell_angle_gamma    88.41300836981586

_space_group_name_H-M_alt    "P 1"
_space_group_IT_number       1

loop_
  _space_group_symop_operation_xyz
  'x, y, z'

loop_
  _atom_site_type_symbol
  _atom_site_label
  _atom_site_symmetry_multiplicity
  _atom_site_fract_x
  _atom_site_fract_y
  _atom_site_fract_z
  _atom_site_occupancy
  N   N1        1.0  0.7078302998791595  0.38831517360704293  0.5571896938469552  1.0000
  C   C1        1.0  0.6472353658473279  0.3531291781039352  0.5461619142221317  1.0000
  C   C2        1.0  0.5718619278608971  0.309361674589012  0.5324445537575611  1.0000
  C   C3        1.0  0.5537610790301101  0.2379852959920712  0.4274298142293915  1.0000
  C   C4        1.0  0.4805773399957047  0.19537895638300395  0.414028498381271  1.0000
  C   C5        1.0  0.4244456460473553  0.2237714734330689  0.5056094331931174  1.0000
  C   C6        1.0  0.3466702179603783  0.17860679460794637  0.4914493942373477  1.0000
  C   C7        1.0  0.2845110454198794  0.2603541706366239  0.517397295285597  1.0000
  C   C8        1.0  0.2111849535739444  0.21754478536548016  0.5040096420696236  1.0000
  C   C9        1.0  0.14797629002039  0.30198340850096184  0.5303217178602191  1.0000
  N   N2        1.0  0.0971695115122327  0.3698662192892408  0.551475899721382  1.0000
  C   C10       1.0  0.1994344313811753  0.09273005058053241  0.464648712463994  1.0000
  C   C11       1.0  0.2607362314589512  0.010968825248497183  0.43869241999852737  1.0000
  C   C12       1.0  0.3339428136395767  0.05338374103286747  0.45187748764624813  1.0000
  C   C13       1.0  0.4432379990220531  0.2956421417646955  0.610843459781719  1.0000
  C   C14       1.0  0.5164745758328512  0.3380581433132952  0.6240890992502099  1.0000
  H   H1        1.0  0.5961556457249007  0.21552680178432992  0.3557114117124631  1.0000
  H   H2        1.0  0.4676579670877877  0.14172726288712112  0.331098901499979  1.0000
  H   H3        1.0  0.2930291288163203  0.35780932899210405  0.546284935980589  1.0000
  H   H4        1.0  0.1429622409427308  0.05869759103844108  0.45405010218358655  1.0000
  H   H5        1.0  0.25152007456931  0.9143342278579439  0.4086043862881905  1.0000
  H   H6        1.0  0.3805697100241093  0.9876451081829801  0.43282195709546367  1.0000
  H   H7        1.0  0.4015601001977118  0.31756109305840985  0.6838563735223824  1.0000
  H   H8        1.0  0.5299226514551907  0.39293082887015274  0.7059771331695319  1.0000
  C   C15       1.0  0.9024150914815592  0.9977164503921833  0.5543025736665774  1.0000
  C   C16       1.0  0.8402830012928619  0.005973147378137256  0.47081396615571114  1.0000
  C   C17       1.0  0.8094838952066731  0.8931278853451501  0.42760350984965223  1.0000
  C   C18       1.0  0.8404619323890389  0.7707030600157357  0.47106645701061756  1.0000
  C   C19       1.0  0.9025919005296755  0.7604545917269218  0.5543742283757547  1.0000
  C   C20       1.0  0.9333144403821003  0.8745598981362928  0.5953001904044357  1.0000
  C   C21       1.0  0.7433566866904582  0.9040069219093154  0.3406368517440326  1.0000
  O   O1        1.0  0.6956148934706132  0.995137525264353  0.35290449388942635  1.0000
  C   C22       1.0  0.7313878905010408  0.8115740121365081  0.239760847961624  1.0000
  C   C23       1.0  0.7924974614065545  0.755353491384022  0.17480623140812734  1.0000
  C   C24       1.0  0.7804289610260879  0.6695747351696116  0.07889758667659597  1.0000
  C   C25       1.0  0.7074489385590644  0.6391316147981553  0.045204474318969456  1.0000
  C   C26       1.0  0.6460865867501557  0.6963993810995801  0.10885098768731893  1.0000
  C   C27       1.0  0.6580863879056925  0.7822402645941708  0.20480706401247661  1.0000
  O   O2        1.0  0.6983564596582719  0.5523717551551144  0.9484356279272217  1.0000
  C   C28       1.0  0.6275631586032208  0.5128986863841197  0.9046046313551903  1.0000
  H   H9        1.0  0.01946190449882268  0.18938311079044512  0.7122666962513908  1.0000
  H   H10       1.0  0.8161244558969745  0.10045832195474347  0.438182364580761  1.0000
  H   H11       1.0  0.8155244762931839  0.6832589750831073  0.44097971528840385  1.0000
  H   H12       1.0  0.9812410867320093  0.867386412359203  0.6595682420636504  1.0000
  H   H13       1.0  0.9262332507994955  0.4290266742316347  0.5867467435533811  1.0000
  H   H14       1.0  0.8496114083141121  0.7787264632946045  0.19710012630009355  1.0000
  H   H15       1.0  0.8281100337706945  0.626885735577235  0.030014600267384672  1.0000
  H   H16       1.0  0.5889413557712342  0.6753054988153874  0.0849128686729268  1.0000
  H   H17       1.0  0.6099855197863754  0.8249037566157446  0.2526454067205679  1.0000
  H   H18       1.0  0.6369462134351713  0.44408732389192845  0.8279889712184425  1.0000
  H   H19       1.0  0.5945551655846798  0.5988269688503702  0.862577266041761  1.0000
  H   H20       1.0  0.5960216002754749  0.46279333347906754  0.9866065939366995  1.0000
  C   C29       1.0  0.902529061854876  0.37922668993958064  0.17295125833056524  1.0000
  C   C30       1.0  0.9603776638927377  0.46959852981082606  0.16366785574847076  1.0000
  C   C31       1.0  0.9889715107051233  0.516287479097735  0.04173679979457168  1.0000
  C   C32       1.0  0.9602559746291935  0.46936655512283854  0.9284443022616999  1.0000
  C   C33       1.0  0.9024778969867241  0.3789444237021844  0.9357255375711016  1.0000
  C   C34       1.0  0.8738141248556108  0.33465539935979294  0.05845412693447072  1.0000
  C   C35       1.0  0.050594844841229  0.6106884743316605  0.03186436572996798  1.0000
  O   O3        1.0  0.0986022739825938  0.6037285083960047  0.941524440374164  1.0000
  C   C36       1.0  0.0577455926626953  0.7129974218016573  0.12439591085288981  1.0000
  C   C37       1.0  0.12919660550275913  0.7561737574929639  0.15510841821526666  1.0000
  C   C38       1.0  0.1364991772535431  0.853841723251066  0.24122751843907486  1.0000
  C   C39       1.0  0.20987375399471464  0.8967175775204184  0.2729428851321798  1.0000
  N   N3        1.0  0.26885864609093857  0.9311793168368891  0.2984347050313503  1.0000
  C   C40       1.0  0.07235799219257921  0.909733320690858  0.29636739558625624  1.0000
  C   C41       1.0  0.00115771337206505  0.8685567990362795  0.26515045103352475  1.0000
  C   C42       1.0  0.9937057935206296  0.7711659007341725  0.17930912761736906  1.0000
  H   H21       1.0  0.7941516784908507  0.20718335135923693  0.3978932823569725  1.0000
  H   H22       1.0  0.9838396859790571  0.5026888507949303  0.25151011618853003  1.0000
  H   H23       1.0  0.9826259364705424  0.5045432165027297  0.8343743765173848  1.0000
  H   H24       1.0  0.8292173290687009  0.2649846329834742  0.06480712947014267  1.0000
  H   H25       1.0  0.8807151987226588  0.3433880897367405  0.6111212430717399  1.0000
  H   H26       1.0  0.17913071043723705  0.7130865897410341  0.11299098493579485  1.0000
  H   H27       1.0  0.07738710081103073  0.9853747029500428  0.36298016614569084  1.0000
  H   H28       1.0  0.951598117253675  0.9126049403692289  0.3071136647501356  1.0000
  H   H29       1.0  0.9378978750973511  0.7424161293496518  0.15482176774469125  1.0000
  Zn  Zn1       1.0  0.820185183666815  0.3829877357974234  0.5555483271126336  1.0000
  Zn  Zn2       1.0  0.984814606357666  0.3751830668298546  0.5531279425834275  1.0000
  C   C43       1.0  0.9024847117201696  0.3738240864721827  0.7915443763346561  1.0000
  C   C44       1.0  0.902516876423774  0.3843482695229712  0.31713199455727037  1.0000
  C   C45       1.0  0.902554952858998  0.6162829813404418  0.5491852890386728  1.0000
  C   C46       1.0  0.9024465787421097  0.14188781696854535  0.5594911517745982  1.0000
  O   O4        1.0  0.9649887935061924  0.3830996214003315  0.3646018428953828  1.0000
  O   O5        1.0  0.9649627169925327  0.36914819183876535  0.7422371381868913  1.0000
  O   O6        1.0  0.9650185953034455  0.5649368551832319  0.546530472973733  1.0000
  O   O7        1.0  0.9649328590270916  0.18731097004545627  0.5603084115560097  1.0000
  O   O8        1.0  0.8400668748174481  0.5708598352465883  0.5483678589591785  1.0000
  O   O9        1.0  0.8400109968694294  0.3750727322530545  0.7440744550701199  1.0000
  O   O10       1.0  0.8400370735272537  0.38902411713355667  0.3664375982983963  1.0000
  O   O11       1.0  0.8399811390363994  0.19323545645385676  0.562144264330682  1.0000
