data_image0
_chemical_formula_structural       NC8NC6H8C7OC6OCH12C6SCOC6H10Zn2C4O8
_chemical_formula_sum              "N2 C45 H30 O11 S1 Zn2"
_cell_length_a       17.457602349358154
_cell_length_b       10.299359160628079
_cell_length_c       10.302041481415108
_cell_angle_alpha    85.54689826212588
_cell_angle_beta     92.8727530123399
_cell_angle_gamma    91.71072845926622

_space_group_name_H-M_alt    "P 1"
_space_group_IT_number       1

loop_
  _space_group_symop_operation_xyz
  'x, y, z'

loop_
  _atom_site_type_symbol
  _atom_site_label
  _atom_site_symmetry_multiplicity
  _atom_site_fract_x
  _atom_site_fract_y
  _atom_site_fract_z
  _atom_site_occupancy
  N   N1        1.0  0.7228207712659149  0.4533451554518033  0.6269730214051563  1.0000
  C   C1        1.0  0.6617323682356355  0.40742225168801527  0.616354244265904  1.0000
  C   C2        1.0  0.5857358128250639  0.3502998706803788  0.6031540260621282  1.0000
  C   C3        1.0  0.5272138616198565  0.3904372127392377  0.6780401492186077  1.0000
  C   C4        1.0  0.4526558671668076  0.3354329450046174  0.6654544828280478  1.0000
  C   C5        1.0  0.3905433835782194  0.3778119850093351  0.7447617125080046  1.0000
  C   C6        1.0  0.3160031980429875  0.3963000342357388  0.6890124456160946  1.0000
  C   C7        1.0  0.25748119637954087  0.4362534085088554  0.7640064776061928  1.0000
  C   C8        1.0  0.181503082626086  0.4553480876824929  0.7060423007007217  1.0000
  N   N2        1.0  0.1204295941597512  0.47069382980504626  0.6594392527399611  1.0000
  C   C9        1.0  0.2730072558932689  0.45796170774790546  0.8952582121876278  1.0000
  C   C10       1.0  0.3467628148543332  0.4398625235778475  0.9513950385154135  1.0000
  C   C11       1.0  0.405273236928717  0.4000890519254665  0.876858649593796  1.0000
  C   C12       1.0  0.4379083635290235  0.23961438738735286  0.5765500052671013  1.0000
  C   C13       1.0  0.496418647444351  0.19975559625574624  0.5020638311980195  1.0000
  C   C14       1.0  0.5701918820648212  0.2548720543279912  0.5151993412588607  1.0000
  H   H1        1.0  0.5395731841357186  0.4656108795221765  0.7446651818326999  1.0000
  H   H2        1.0  0.3036585073458137  0.3813642989550097  0.5870083392666201  1.0000
  H   H3        1.0  0.2281513718103024  0.48882520167462107  0.9540848931340249  1.0000
  H   H4        1.0  0.35859417734446847  0.4563560922581089  0.05302614686890761  1.0000
  H   H5        1.0  0.46175356081528673  0.38508100331633166  0.9229533581889342  1.0000
  H   H6        1.0  0.3814133794696152  0.19428118119152993  0.5658951878187208  1.0000
  H   H7        1.0  0.4845734442715254  0.1256988340891101  0.43424086732650746  1.0000
  H   H8        1.0  0.6150475848806044  0.22313866210016742  0.4568835730562175  1.0000
  C   C15       1.0  0.921538568228958  0.0806374172768276  0.6431675837734288  1.0000
  C   C16       1.0  0.8580841955520436  0.08317840627903839  0.553607941909978  1.0000
  C   C17       1.0  0.8266295731902181  0.9674997816782966  0.507388524113402  1.0000
  C   C18       1.0  0.8582669349931616  0.8479247797277316  0.5538779133103966  1.0000
  C   C19       1.0  0.9217191350017321  0.8433918178642633  0.6432565577749081  1.0000
  C   C20       1.0  0.9530954947467152  0.9603233655210551  0.6871845648840309  1.0000
  C   C21       1.0  0.759095116872075  0.9722956553313051  0.41395997214658675  1.0000
  O   O1        1.0  0.7103396365363314  0.05903707947479431  0.4215428891135371  1.0000
  C   C22       1.0  0.7468690023552234  0.8787586790231923  0.3119364368879147  1.0000
  C   C23       1.0  0.8092745836768181  0.8281545587769213  0.2529910316301325  1.0000
  C   C24       1.0  0.79694679955683  0.7412627458171015  0.15592379197158235  1.0000
  C   C25       1.0  0.7224156055906958  0.7041082801334893  0.11508300339592292  1.0000
  C   C26       1.0  0.6597518340294111  0.7557363573685789  0.17269585662014286  1.0000
  C   C27       1.0  0.6720094611679165  0.8426839827530557  0.2698037789597354  1.0000
  O   O2        1.0  0.7131270289891934  0.616508963210193  0.01744761276251139  1.0000
  C   C28       1.0  0.6408286927097863  0.570525245691652  0.9666859948980702  1.0000
  H   H9        1.0  0.04107636869397613  0.28307157188087473  0.8125683761460529  1.0000
  H   H10       1.0  0.8334115077270459  0.17544116141144395  0.5186158107348973  1.0000
  H   H11       1.0  0.8327988700107978  0.7581867491736258  0.5213536031177404  1.0000
  H   H12       1.0  0.0020421021641925385  0.957558783762494  0.7561356465932316  1.0000
  H   H13       1.0  0.9458636342290839  0.5141387570993209  0.677938953631193  1.0000
  H   H14       1.0  0.8676023477835425  0.8567796641727607  0.2808797316884213  1.0000
  H   H15       1.0  0.8456391465841305  0.7029560371591544  0.11172905941875322  1.0000
  H   H16       1.0  0.6013920709265339  0.7293874065703478  0.14316029056470647  1.0000
  H   H17       1.0  0.6228883700263386  0.8809265485360229  0.3129129733340714  1.0000
  H   H18       1.0  0.6504086990559004  0.5025738763132083  0.8910102772039519  1.0000
  H   H19       1.0  0.60711830166377  0.6534171117797691  0.9214327588017115  1.0000
  H   H20       1.0  0.6086196886051098  0.5175227293087841  0.04557376287575643  1.0000
  C   C29       1.0  0.9216432622872094  0.4621445406564382  0.2619262095221726  1.0000
  C   C30       1.0  0.9568448473264063  0.5867817190539137  0.25389954966766193  1.0000
  C   C31       1.0  0.9747012057476955  0.6482883386925904  0.13297818293520058  1.0000
  C   C32       1.0  0.956917566043731  0.5863810201147217  0.018800036205675275  1.0000
  C   C33       1.0  0.9216144553096324  0.4618847189501982  0.0244979230849125  1.0000
  C   C34       1.0  0.9042166454529483  0.40035955056940176  0.14665015478738308  1.0000
  S   S1        1.0  0.0203551444366743  0.8068168336021306  0.12419868845513626  1.0000
  C   C35       1.0  0.11484786856615159  0.7411374708993033  0.13447599168858515  1.0000
  O   O3        1.0  0.14486748798765747  0.7192740109187135  0.029864685204181507  1.0000
  C   C36       1.0  0.15712838703870258  0.7116388670720744  0.26144981247393173  1.0000
  C   C37       1.0  0.22517096914339785  0.6408826639573946  0.267190842741615  1.0000
  C   C38       1.0  0.26515105652338855  0.6117296331199009  0.3864044337591317  1.0000
  C   C39       1.0  0.23790283746195717  0.6528892258553498  0.5011212066801494  1.0000
  C   C40       1.0  0.17068480385393925  0.7235225915584151  0.49682775519654987  1.0000
  C   C41       1.0  0.13047580612180942  0.753039777764057  0.3778949151778701  1.0000
  H   H21       1.0  0.855179482796683  0.2273333552616117  0.484354047827243  1.0000
  H   H22       1.0  0.9706387421755911  0.6363124843376007  0.3413449654270697  1.0000
  H   H23       1.0  0.9710365709853418  0.6355944328255221  0.9259862660130844  1.0000
  H   H24       1.0  0.8770805134575161  0.30427302802068046  0.15191772809363324  1.0000
  H   H25       1.0  0.9084016657218429  0.4143904960234752  0.699355221325348  1.0000
  H   H26       1.0  0.24732440111049847  0.6073905772368642  0.17967774853991658  1.0000
  H   H27       1.0  0.3172892830168059  0.5570187602348113  0.3898091535069954  1.0000
  H   H28       1.0  0.2689212877756484  0.6301909064276883  0.5933137074624746  1.0000
  H   H29       1.0  0.1497223655756721  0.7556795744128137  0.5857920015810687  1.0000
  H   H30       1.0  0.07892002510981522  0.8087181427731671  0.377765104405946  1.0000
  Zn  Zn1       1.0  0.8375620876541775  0.4583481227401054  0.6363495708882274  1.0000
  Zn  Zn2       1.0  0.005688260599051587  0.465680210703904  0.6500733322267336  1.0000
  C   C42       1.0  0.9216169441117892  0.4567599122518129  0.8803547707506738  1.0000
  C   C43       1.0  0.9216352404571071  0.467270139891675  0.4060684098570788  1.0000
  C   C44       1.0  0.9216812433817947  0.69921662534064  0.6380653392285234  1.0000
  C   C45       1.0  0.9215708834454079  0.22481186392034558  0.6483579057378881  1.0000
  O   O4        1.0  0.985435553352079  0.47176716104972494  0.4596519442901008  1.0000
  O   O5        1.0  0.9854205060893474  0.4578267965759921  0.8371868797485229  1.0000
  O   O6        1.0  0.9854715684169651  0.6536136207096084  0.6415363795052684  1.0000
  O   O7        1.0  0.9853844336602673  0.27598034373787783  0.6553023424979918  1.0000
  O   O8        1.0  0.8578658572197508  0.6480479872054665  0.6311205559268933  1.0000
  O   O9        1.0  0.857814795260616  0.45226272345368623  0.8267709871214131  1.0000
  O   O10       1.0  0.8578298426226795  0.46620304320394346  0.44923449060131615  1.0000
  O   O11       1.0  0.8577787229218511  0.27041621656966197  0.6448849861544956  1.0000
