data_image0
_chemical_formula_structural       NC12NC2H8C7OC3FC3H9C7OC3FC3H9Zn2C4O8
_chemical_formula_sum              "N2 C44 H26 O10 F2 Zn2"
_cell_length_a       17.80743265337812
_cell_length_b       10.29937835083307
_cell_length_c       10.29938172300155
_cell_angle_alpha    85.56710995607625
_cell_angle_beta     91.51787109396743
_cell_angle_gamma    89.45609770286684

_space_group_name_H-M_alt    "P 1"
_space_group_IT_number       1

loop_
  _space_group_symop_operation_xyz
  'x, y, z'

loop_
  _atom_site_type_symbol
  _atom_site_label
  _atom_site_symmetry_multiplicity
  _atom_site_fract_x
  _atom_site_fract_y
  _atom_site_fract_z
  _atom_site_occupancy
  N   N1        1.0  0.707935590289767  0.40632316982410055  0.6012008253264189  1.0000
  C   C1        1.0  0.6571327987942372  0.43586274324443264  0.5325003963447441  1.0000
  C   C2        1.0  0.5939291095738832  0.47260782945576585  0.44704571071701094  1.0000
  C   C3        1.0  0.6056870669520095  0.5265930591882249  0.32042289659101053  1.0000
  C   C4        1.0  0.5443900399653565  0.5618352077755966  0.23736430871874448  1.0000
  C   C5        1.0  0.4711809117782528  0.5433554056444718  0.28026861903264066  1.0000
  C   C6        1.0  0.45844608228006006  0.4892515071825758  0.40735957736991435  1.0000
  C   C7        1.0  0.5206004286524384  0.4540126077251745  0.4904016536058491  1.0000
  C   C8        1.0  0.38066806327603114  0.4696583832987822  0.45312423758325093  1.0000
  C   C9        1.0  0.3618678960553927  0.49688356671571055  0.5801620230310436  1.0000
  C   C10       1.0  0.2886288240903943  0.47844535155904455  0.6231068902742298  1.0000
  C   C11       1.0  0.23324676718533183  0.43252792085230674  0.5398519484105031  1.0000
  C   C12       1.0  0.1578707585322241  0.4135372758717484  0.5841977713085145  1.0000
  N   N2        1.0  0.0972737853680736  0.3982700744981831  0.6198487622255875  1.0000
  C   C13       1.0  0.25135532219228574  0.40513398013385915  0.4133571380935819  1.0000
  C   C14       1.0  0.3245415818402343  0.4235869051012333  0.37015638884566604  1.0000
  H   H1        1.0  0.6621611215835842  0.5414071336018054  0.2859850596288258  1.0000
  H   H2        1.0  0.5536119066578489  0.6039047502890289  0.13958284788609832  1.0000
  H   H3        1.0  0.4245578052359519  0.5729725168927957  0.21467604480394908  1.0000
  H   H4        1.0  0.5120766845398456  0.41055766625681933  0.5880588365910251  1.0000
  H   H5        1.0  0.40354164733802006  0.5340838142748328  0.6457289881815997  1.0000
  H   H6        1.0  0.2751746739367492  0.5003209623461198  0.7211105962476794  1.0000
  H   H7        1.0  0.20896488381322753  0.36920118646860356  0.34820296609527146  1.0000
  H   H8        1.0  0.33746698049314877  0.4001757784153437  0.27245619265826204  1.0000
  C   C15       1.0  0.9025290902525275  0.020913243965099415  0.6105851683605596  1.0000
  C   C16       1.0  0.824149362328402  0.02253807321237744  0.5908063315841312  1.0000
  C   C17       1.0  0.7845211639660583  0.9060721298795799  0.5823031985341041  1.0000
  C   C18       1.0  0.8243330564343646  0.7872902724962982  0.5908220050949289  1.0000
  C   C19       1.0  0.902687457783593  0.7836699120387397  0.6104759603099004  1.0000
  C   C20       1.0  0.9413088738778732  0.9010113548676658  0.6205846388621956  1.0000
  C   C21       1.0  0.7018506393684207  0.9077479428488014  0.5600493749516671  1.0000
  O   O1        1.0  0.6728442245561349  0.8236407439602011  0.4919992996011624  1.0000
  C   C22       1.0  0.6520861612033789  0.0047392407818447335  0.6150045556638517  1.0000
  C   C23       1.0  0.5851760588132103  0.0461053214729763  0.5480191733299347  1.0000
  C   C24       1.0  0.537445021865213  0.1363630488945129  0.5997937407999676  1.0000
  F   F1        1.0  0.47335539905981694  0.17636313158329875  0.5340048058398388  1.0000
  C   C25       1.0  0.5557102921126377  0.1853118122567179  0.719273249842995  1.0000
  C   C26       1.0  0.621541675525075  0.14371600090037684  0.7874215242093696  1.0000
  C   C27       1.0  0.6694279842210177  0.05352677144408502  0.7360591044666711  1.0000
  H   H9        1.0  0.05057235024975859  0.22531848135413313  0.6459203839407874  1.0000
  H   H10       1.0  0.7939233560502585  0.11467248849077505  0.5805455103315158  1.0000
  H   H11       1.0  0.7939210094421472  0.6974492074131592  0.5833130888962996  1.0000
  H   H12       1.0  0.0017338195146998636  0.8989547287463202  0.6358319100860181  1.0000
  H   H13       1.0  0.9328585268520158  0.4549055644207998  0.6169334458828435  1.0000
  H   H14       1.0  0.570223407268854  0.009389598859288917  0.4551449388728075  1.0000
  H   H15       1.0  0.5187406226700401  0.2550750295066502  0.7593813706867418  1.0000
  H   H16       1.0  0.6353328669044362  0.18094296396829201  0.8804536984563907  1.0000
  H   H17       1.0  0.7194856658103401  0.02094282335255926  0.7916086692779551  1.0000
  C   C28       1.0  0.9026715039985858  0.4021891127330337  0.22916593828418108  1.0000
  C   C29       1.0  0.9264183684543285  0.27123826014160235  0.23918454677681678  1.0000
  C   C30       1.0  0.9392118838695258  0.2056296373337645  0.12706791034483822  1.0000
  C   C31       1.0  0.9263465763500466  0.27153289090118893  0.003915013286480473  1.0000
  C   C32       1.0  0.9025450323272587  0.40239398242988567  0.9918952053340075  1.0000
  C   C33       1.0  0.891034606528959  0.4670648981564167  0.10512612599515392  1.0000
  C   C34       1.0  0.9635264806859908  0.06695275439890747  0.13749894476823443  1.0000
  O   O2        1.0  0.9403726098079549  0.9941846413647821  0.05221991644071422  1.0000
  C   C35       1.0  0.014113112227806202  0.010831116736433  0.24457551094384056  1.0000
  C   C36       1.0  0.00803374957498737  0.8789907458187565  0.2895776874546565  1.0000
  C   C37       1.0  0.05606154447578149  0.8247880865587227  0.38944266333797106  1.0000
  F   F2        1.0  0.049382598429955404  0.6978539872572327  0.4328110234523417  1.0000
  C   C38       1.0  0.1109454015448208  0.9012795486455784  0.44452743996972455  1.0000
  C   C39       1.0  0.11810638547753638  0.031892051232548235  0.3995121953975487  1.0000
  C   C40       1.0  0.0702276493851186  0.08650341412813245  0.2997252716998249  1.0000
  H   H18       1.0  0.8567545692647398  0.6487188386349503  0.41757446376992347  1.0000
  H   H19       1.0  0.9341908817190211  0.21968497228286643  0.334370281726172  1.0000
  H   H20       1.0  0.9356475747091663  0.22078900759473852  0.9173424320708619  1.0000
  H   H21       1.0  0.8727271908998709  0.5680179536967527  0.09659845318245397  1.0000
  H   H22       1.0  0.8927960257405679  0.4523388213691697  0.6598184836324017  1.0000
  H   H23       1.0  0.9657000892905616  0.8183476547916665  0.24818653132611268  1.0000
  H   H24       1.0  0.14814833250967085  0.8592999700872809  0.5217323204712565  1.0000
  H   H25       1.0  0.16102916980336923  0.09077514950230325  0.44157076006366824  1.0000
  H   H26       1.0  0.07763477463411284  0.1873131453697252  0.2648038625340883  1.0000
  Zn  Zn1       1.0  0.8202901845989777  0.40399575506979435  0.6065897044425193  1.0000
  Zn  Zn2       1.0  0.9849191846090901  0.40058689823913207  0.6144704775581831  1.0000
  C   C41       1.0  0.9025662079011139  0.39718144608285577  0.8477236857544184  1.0000
  C   C42       1.0  0.902644959369646  0.4074028087171475  0.3733367095344684  1.0000
  C   C43       1.0  0.9026545256136277  0.6394913334515331  0.6053213000902362  1.0000
  C   C44       1.0  0.9025565851452833  0.16509136216879106  0.6157391619707604  1.0000
  O   O3        1.0  0.9651118971057769  0.40785326335997674  0.42471245051998907  1.0000
  O   O4        1.0  0.9650488717754323  0.3941427681212122  0.8023288955134655  1.0000
  O   O5        1.0  0.9651193470170447  0.5898110843998936  0.6065872135423724  1.0000
  O   O6        1.0  0.9650413657055104  0.21218495750892075  0.6204540324270056  1.0000
  O   O7        1.0  0.8401679473227606  0.5923976969646925  0.6006061468775448  1.0000
  O   O8        1.0  0.8400974724132008  0.39673094103037787  0.7963477593803758  1.0000
  O   O9        1.0  0.8401604980429598  0.4104413905909754  0.41872975301265436  1.0000
  O   O10       1.0  0.8400899666215509  0.21477307547698143  0.6144714322875957  1.0000
