data_image0
_chemical_formula_structural       NC12NC2H8C7OC3NC3H11C6SCOC6H10Zn2C4O8
_chemical_formula_sum              "N3 C44 H29 O10 S1 Zn2"
_cell_length_a       19.240039667572717
_cell_length_b       10.298746005989749
_cell_length_c       10.302041481415108
_cell_angle_alpha    85.54475236709732
_cell_angle_beta     89.99620935601247
_cell_angle_gamma    90.00762981599719

_space_group_name_H-M_alt    "P 1"
_space_group_IT_number       1

loop_
  _space_group_symop_operation_xyz
  'x, y, z'

loop_
  _atom_site_type_symbol
  _atom_site_label
  _atom_site_symmetry_multiplicity
  _atom_site_fract_x
  _atom_site_fract_y
  _atom_site_fract_z
  _atom_site_occupancy
  N   N1        1.0  0.6546292049735126  0.4218953483780099  0.56789855473071  1.0000
  C   C1        1.0  0.5944808361651219  0.42189543239503613  0.5678984728196586  1.0000
  C   C2        1.0  0.519662799037185  0.42189554973866317  0.5678983355560581  1.0000
  C   C3        1.0  0.4831808252842814  0.35738865641899786  0.6712817095762584  1.0000
  C   C4        1.0  0.4105100662130844  0.35727773543397134  0.6713682222100761  1.0000
  C   C5        1.0  0.3733305641145204  0.42189564239116417  0.567898107932532  1.0000
  C   C6        1.0  0.4105267404096055  0.486513736282997  0.46442818817230536  1.0000
  C   C7        1.0  0.48319741788100284  0.4864025797355085  0.4645148232569456  1.0000
  C   C8        1.0  0.2961254736726671  0.42189556375648674  0.5678980125296864  1.0000
  C   C9        1.0  0.2589281072247634  0.3086104181663547  0.6097483055303332  1.0000
  C   C10       1.0  0.186257429697183  0.30871735945562895  0.6096570105391728  1.0000
  C   C11       1.0  0.1497931867381037  0.4218954345512329  0.5678980734138279  1.0000
  C   C12       1.0  0.0749751495662314  0.4218953207118086  0.5678983220096008  1.0000
  N   N2        1.0  0.014826832703836399  0.4218952798120119  0.567898530379942  1.0000
  C   C13       1.0  0.1862764546429168  0.5350735854994406  0.5261390834167667  1.0000
  C   C14       1.0  0.2589471617359528  0.5351807069819177  0.5260476258842199  1.0000
  H   H1        1.0  0.5108892722620837  0.30744578009859613  0.7520005536539249  1.0000
  H   H2        1.0  0.3834103578251434  0.3081326234221573  0.7532024133959523  1.0000
  H   H3        1.0  0.3834399180131486  0.5356588753673204  0.3825939461516812  1.0000
  H   H4        1.0  0.5109187423493624  0.5363453556884861  0.38379625490518454  1.0000
  H   H5        1.0  0.2860139221337409  0.21943647045834846  0.6409002049155581  1.0000
  H   H6        1.0  0.1585351549395383  0.22044230855153923  0.6418417449633045  1.0000
  H   H7        1.0  0.1585689059505069  0.6233486118594807  0.4939543635374577  1.0000
  H   H8        1.0  0.28604782565141573  0.6243547338889921  0.49489568174509757  1.0000
  C   C15       1.0  0.8346981440462267  0.04049324952864275  0.5678813597435575  1.0000
  C   C16       1.0  0.8672152737019475  0.04904283037151402  0.4454043881210228  1.0000
  C   C17       1.0  0.8829266757591673  0.9362427851529461  0.3827852603972104  1.0000
  C   C18       1.0  0.8672157964886484  0.8138062473201029  0.44535526197169806  1.0000
  C   C19       1.0  0.8347645560548543  0.8032874256790236  0.5679269041902264  1.0000
  C   C20       1.0  0.8185443500429143  0.9171969857137576  0.6282577600722354  1.0000
  C   C21       1.0  0.9178551931075433  0.9450793670664663  0.2539984320864519  1.0000
  O   O1        1.0  0.9602922760566425  0.8571103191962184  0.22879178842399672  1.0000
  C   C22       1.0  0.9046429904324368  0.053652510345741256  0.1538150674671197  1.0000
  C   C23       1.0  0.8388317710241032  0.11304889620504688  0.14171032835419273  1.0000
  C   C24       1.0  0.8266560354178175  0.21475388830357378  0.0458249039940799  1.0000
  N   N3        1.0  0.7597322013366359  0.2749921491107128  0.03462333992062705  1.0000
  C   C25       1.0  0.8803345546749851  0.2566705353748997  0.9607097084097562  1.0000
  C   C26       1.0  0.9455114203798205  0.19711004243755448  0.9709587900444854  1.0000
  C   C27       1.0  0.9576331049941325  0.09582963212513418  0.06654007433550801  1.0000
  H   H9        1.0  0.7742205817929746  0.2316336212761585  0.8001651455114969  1.0000
  H   H10       1.0  0.881038318866785  0.1435759872579292  0.39919289924697376  1.0000
  H   H11       1.0  0.8797523084189254  0.726631549840937  0.3976680204410741  1.0000
  H   H12       1.0  0.793482939973682  0.9098547251778626  0.7226672202469615  1.0000
  H   H13       1.0  0.7737094273930378  0.5760939937615505  0.7997222733177369  1.0000
  H   H14       1.0  0.7967399023960686  0.07962216621483131  0.20565868067825543  1.0000
  H   H15       1.0  0.7193475533477338  0.24451582248586545  0.09756045605446961  1.0000
  H   H16       1.0  0.7500927278254721  0.3506327240895202  0.9634008494045778  1.0000
  H   H17       1.0  0.8715781557759864  0.33504845258636595  0.8862391997461958  1.0000
  H   H18       1.0  0.9867517933756016  0.22950199114070524  0.9046786486011822  1.0000
  H   H19       1.0  0.008606912360399122  0.05118538349885471  0.07306616253483678  1.0000
  C   C28       1.0  0.8347443973159244  0.4220196078848901  0.1866171166835544  1.0000
  C   C29       1.0  0.866618173204012  0.5451285317980037  0.1757114912015505  1.0000
  C   C30       1.0  0.8827866855948471  0.6058598218441444  0.05332980461277592  1.0000
  C   C31       1.0  0.8666841012290624  0.5447246347565842  0.9406060551362518  1.0000
  C   C32       1.0  0.834718333729799  0.4217610269681058  0.9491911921523939  1.0000
  C   C33       1.0  0.8189652298076401  0.36099117812833126  0.07276630290355102  1.0000
  S   S1        1.0  0.9241250907699776  0.7624060854866093  0.04081661457638952  1.0000
  C   C34       1.0  0.009735849371689476  0.6925994085493108  0.04338084336815018  1.0000
  O   O2        1.0  0.0369338629942908  0.6694246699980995  0.9363191892726568  1.0000
  C   C35       1.0  0.04804217003606848  0.6612540420311797  0.1669034736272783  1.0000
  C   C36       1.0  0.10969199003177965  0.5875243672301322  0.16709133258002162  1.0000
  C   C37       1.0  0.1459142712310757  0.5566249752138372  0.2830415553834218  1.0000
  C   C38       1.0  0.12122445361661782  0.5989761196355103  0.3999816606477491  1.0000
  C   C39       1.0  0.06032162026727206  0.6725469699576851  0.4011740588825963  1.0000
  C   C40       1.0  0.023891919324068533  0.7038205286297421  0.2855232644452792  1.0000
  H   H20       1.0  0.7745637571775884  0.19009393745340053  0.4144806834027539  1.0000
  H   H21       1.0  0.8791079634749172  0.5940604870093456  0.2620287457624071  1.0000
  H   H22       1.0  0.8794684540880356  0.5933250313251526  0.8466375896996321  1.0000
  H   H23       1.0  0.7943944339238521  0.26608275313410235  0.0802532080867766  1.0000
  H   H24       1.0  0.8227547161530647  0.3748403844897159  0.6251291266183605  1.0000
  H   H25       1.0  0.12976538609788446  0.5530635196736697  0.07777061885415137  1.0000
  H   H26       1.0  0.1931540504096274  0.4996356227392458  0.2821911273271227  1.0000
  H   H27       1.0  0.1493274296402849  0.5749228852840365  0.4896422884062297  1.0000
  H   H28       1.0  0.04132733351071849  0.7056206610060323  0.4918487276386765  1.0000
  H   H29       1.0  0.9771796631249752  0.7617520184223381  0.28960100720059545  1.0000
  Zn  Zn1       1.0  0.7585744682529401  0.42189185854924505  0.5679060343143392  1.0000
  Zn  Zn2       1.0  0.9108815869104864  0.4218881716466971  0.5679016467874449  1.0000
  C   C41       1.0  0.8347212410946279  0.4166357919186585  0.8050480289674555  1.0000
  C   C42       1.0  0.8347364773961378  0.4271458769558516  0.33075977962337366  1.0000
  C   C43       1.0  0.8347486102723954  0.6591048268653523  0.5627442463769521  1.0000
  C   C44       1.0  0.8347090561083499  0.18467528154871804  0.5730636313459376  1.0000
  O   O3        1.0  0.8925335766806279  0.4288592342908337  0.3791337086834514  1.0000
  O   O4        1.0  0.8925217206518484  0.41491865662900596  0.7566703960517069  1.0000
  O   O5        1.0  0.8925430423944632  0.6107154683490248  0.5610083773735179  1.0000
  O   O6        1.0  0.8925122029700497  0.23306243189611187  0.574795630009935  1.0000
  O   O7        1.0  0.7769438002184325  0.6107175983025046  0.5610120510865171  1.0000
  O   O8        1.0  0.7769224786108936  0.4149223470455996  0.7566740006273134  1.0000
  O   O9        1.0  0.7769343347353556  0.42886287997682704  0.37913575219095175  1.0000
  O   O10       1.0  0.7769129610177964  0.2330660682594825  0.5747977708638088  1.0000
