data_image0
_chemical_formula_structural       NC10NC3NH7C7OC6H10C7OC6H10Zn2C4O8
_chemical_formula_sum              "N3 C43 H27 O10 Zn2"
_cell_length_a       19.210446455230148
_cell_length_b       10.299379429549807
_cell_length_c       10.299382801718286
_cell_angle_alpha    85.54943384292815
_cell_angle_beta     89.97114799571779
_cell_angle_gamma    89.94476483549958

_space_group_name_H-M_alt    "P 1"
_space_group_IT_number       1

loop_
  _space_group_symop_operation_xyz
  'x, y, z'

loop_
  _atom_site_type_symbol
  _atom_site_label
  _atom_site_symmetry_multiplicity
  _atom_site_fract_x
  _atom_site_fract_y
  _atom_site_fract_z
  _atom_site_occupancy
  N   N1        1.0  0.6556975653939874  0.4200079732812425  0.5668364372411387  1.0000
  C   C1        1.0  0.5954687509521484  0.42221562472416774  0.5670668304302693  1.0000
  C   C2        1.0  0.5206639827459021  0.4249527082130147  0.5673522581331301  1.0000
  C   C3        1.0  0.48503859835343993  0.5411908649633581  0.5824242812920379  1.0000
  C   C4        1.0  0.4123731114005573  0.5413424000247298  0.582371632257916  1.0000
  C   C5        1.0  0.3754971404304236  0.4256617207621103  0.5674384987705008  1.0000
  C   C6        1.0  0.2981751782849558  0.42430515999099394  0.5672883707551395  1.0000
  C   C7        1.0  0.2604203101418764  0.5278697053437866  0.5038913582033961  1.0000
  C   C8        1.0  0.1876421199934328  0.5264673943482452  0.5037827634674719  1.0000
  C   C9        1.0  0.1516173680803244  0.42175805060841487  0.5670200965909082  1.0000
  C   C10       1.0  0.0766880072424305  0.4204558885698688  0.5668837132376834  1.0000
  N   N2        1.0  0.0164502829338255  0.41940890608598447  0.5667740959126002  1.0000
  C   C11       1.0  0.1886485695304949  0.31831919913684015  0.6303920577860991  1.0000
  C   C12       1.0  0.2614286293904988  0.3194472384058602  0.6305509919821266  1.0000
  C   C13       1.0  0.4137321486256341  0.3112439482038647  0.5526540172775385  1.0000
  N   N3        1.0  0.4845018112295773  0.3136890582370553  0.5528187439121068  1.0000
  H   H1        1.0  0.5131281787169302  0.6306304116984969  0.5944421060418659  1.0000
  H   H2        1.0  0.3850925896836568  0.6313640684151258  0.5957839775692557  1.0000
  H   H3        1.0  0.2871469823315037  0.6091181942136961  0.4528730998211359  1.0000
  H   H4        1.0  0.1594949770543578  0.6068883619647174  0.4540951776874971  1.0000
  H   H5        1.0  0.1612824987992445  0.23693477579778177  0.6799804885021543  1.0000
  H   H6        1.0  0.2889306595985666  0.23914569974103084  0.6816762592150953  1.0000
  H   H7        1.0  0.3874785754291521  0.2203593133756323  0.53919572003522  1.0000
  C   C14       1.0  0.8360848168878484  0.03831656308598963  0.5669593319279727  1.0000
  C   C15       1.0  0.8782607505186069  0.02837966829016514  0.6786972580382833  1.0000
  C   C16       1.0  0.8988804299028565  0.9061297760625283  0.735905917971299  1.0000
  C   C17       1.0  0.8781760724599016  0.7931576826480371  0.6784209912832087  1.0000
  C   C18       1.0  0.8360696833143373  0.8010903579939219  0.5666624280803696  1.0000
  C   C19       1.0  0.8151170701165814  0.9241438304038868  0.5117770110413435  1.0000
  C   C20       1.0  0.9440197588931953  0.895552825111135  0.8530951750983236  1.0000
  O   O1        1.0  0.9881784817931872  0.8046954706191615  0.8654436964030907  1.0000
  C   C21       1.0  0.9390599650776966  0.9879468417381921  0.9562804122292687  1.0000
  C   C22       1.0  0.9985885895366908  0.017326681352688666  0.027832510989191483  1.0000
  C   C23       1.0  0.9942591838584963  0.10311263347475519  0.12632516475628686  1.0000
  C   C24       1.0  0.9304893644262802  0.15951773763050192  0.15509430598584362  1.0000
  C   C25       1.0  0.8708536114572883  0.12982964464876567  0.08578631630761957  1.0000
  C   C26       1.0  0.8749034982865517  0.04412379245661824  0.9872060442371475  1.0000
  H   H8        1.0  0.7573748915703745  0.2644767425288541  0.35494231593413406  1.0000
  H   H9        1.0  0.8957630461493175  0.11594672232885217  0.7205310747196658  1.0000
  H   H10       1.0  0.8944634983722303  0.6988376834504749  0.7218552117422787  1.0000
  H   H11       1.0  0.7826029315108497  0.9310003339326726  0.42563488582519926  1.0000
  H   H12       1.0  0.8203788983600173  0.4767292913282087  0.5230977182926391  1.0000
  H   H13       1.0  0.048529283511827837  0.9747945094691408  0.006776630080148616  1.0000
  H   H14       1.0  0.04039212155536087  0.12581672861742677  0.1804130450624145  1.0000
  H   H15       1.0  0.9272330614721546  0.22580842252080302  0.23143557377864432  1.0000
  H   H16       1.0  0.8213604696864794  0.17280020749574754  0.1088419376726355  1.0000
  H   H17       1.0  0.8278086595082741  0.02073701795478433  0.936278063553625  1.0000
  C   C27       1.0  0.8361466880658984  0.4196301124224451  0.18544111283789722  1.0000
  C   C28       1.0  0.9092764105093527  0.42037219583070184  0.18412448652900681  1.0000
  C   C29       1.0  0.9461609982503089  0.4192583162547685  0.06640288124354687  1.0000
  C   C30       1.0  0.9091067830289926  0.4204005158973374  0.9488789362361407  1.0000
  C   C31       1.0  0.8360077802842053  0.4197768072775723  0.9481806139874589  1.0000
  C   C32       1.0  0.799951765393269  0.4190504813920275  0.06702758539294207  1.0000
  C   C33       1.0  0.023376451959138622  0.4214258945730822  0.06476015475445851  1.0000
  O   O2        1.0  0.054045731094436444  0.48208743295857914  0.9702043706034122  1.0000
  C   C34       1.0  0.06579931494463542  0.35476831800185926  0.17028490583927458  1.0000
  C   C35       1.0  0.13122609741118318  0.4051224513327001  0.2013553785766451  1.0000
  C   C36       1.0  0.1719511778759515  0.342117224958576  0.2996272477574218  1.0000
  C   C37       1.0  0.1481019576756646  0.22784649254982337  0.3670397981389386  1.0000
  C   C38       1.0  0.08359825355669503  0.17604377792902137  0.3359467101850637  1.0000
  C   C39       1.0  0.04267488264103636  0.23867059881375097  0.23777708338171144  1.0000
  H   H18       1.0  0.6981399148322842  0.4202415031597473  0.3950895442414808  1.0000
  H   H19       1.0  0.9376346075892209  0.423275755508669  0.2747172828764164  1.0000
  H   H20       1.0  0.9374721810880606  0.420524774663634  0.857922486103277  1.0000
  H   H21       1.0  0.743574259344516  0.4184791897524007  0.06723836946506934  1.0000
  H   H22       1.0  0.8079263456056855  0.4206422490677113  0.6203701085383404  1.0000
  H   H23       1.0  0.15055004988435305  0.49376865093399025  0.1503820473033659  1.0000
  H   H24       1.0  0.22205723123428855  0.38192012791965935  0.32347575858221345  1.0000
  H   H25       1.0  0.17972465956594852  0.17916384302179877  0.4429966564228085  1.0000
  H   H26       1.0  0.06540736469168262  0.086939761199333  0.387548785140593  1.0000
  H   H27       1.0  0.993404740493174  0.19558394475553365  0.21374348446232183  1.0000
  Zn  Zn1       1.0  0.7598030048521066  0.4198316326093323  0.566825947312829  1.0000
  Zn  Zn2       1.0  0.912344825809171  0.4195746656184187  0.5667952257613309  1.0000
  C   C40       1.0  0.8360326076244448  0.41457508481276806  0.8040085639243653  1.0000
  C   C41       1.0  0.8361168887330425  0.4248328493517026  0.3296127356432137  1.0000
  C   C42       1.0  0.8360698994274025  0.6569088772514518  0.5615433736150774  1.0000
  C   C43       1.0  0.8360795448965843  0.18249749661746328  0.5720779958091249  1.0000
  O   O3        1.0  0.8939957139919911  0.42647575167622986  0.37798639281744384  1.0000
  O   O4        1.0  0.8939294949819484  0.4127361706345416  0.7556112163378825  1.0000
  O   O5        1.0  0.8939588279695115  0.6084237743321574  0.5598188593132194  1.0000
  O   O6        1.0  0.8939663289697831  0.23078815733835434  0.5737786524740875  1.0000
  O   O7        1.0  0.7781814496364585  0.6086181409784999  0.5598425206037243  1.0000
  O   O8        1.0  0.7781521166273601  0.4129320976655424  0.7556348077754165  1.0000
  O   O9        1.0  0.7782183359689001  0.42667163314817813  0.37800842286839087  1.0000
  O   O10       1.0  0.778188950926301  0.23098402953966524  0.5738007798967066  1.0000
