data_image0
_chemical_formula_structural       NC11NC3H8C6SCOC6H10C7OC3FC3H9Zn2C4O8
_chemical_formula_sum              "N2 C44 H27 S1 O10 F1 Zn2"
_cell_length_a       17.807433833752565
_cell_length_b       10.302038109246572
_cell_length_c       10.29938172300155
_cell_angle_alpha    85.58271297890445
_cell_angle_beta     88.50784037207825
_cell_angle_gamma    90.7032530140906

_space_group_name_H-M_alt    "P 1"
_space_group_IT_number       1

loop_
  _space_group_symop_operation_xyz
  'x, y, z'

loop_
  _atom_site_type_symbol
  _atom_site_label
  _atom_site_symmetry_multiplicity
  _atom_site_fract_x
  _atom_site_fract_y
  _atom_site_fract_z
  _atom_site_occupancy
  N   N1        1.0  0.7079224245789185  0.43775891741303585  0.534837730603196  1.0000
  C   C1        1.0  0.657085523497604  0.403057586183432  0.6013955870487775  1.0000
  C   C2        1.0  0.5938392948585258  0.35989198973427405  0.6841850665567604  1.0000
  C   C3        1.0  0.6055343760485369  0.2963884830499983  0.806895261261783  1.0000
  C   C4        1.0  0.5441962296896355  0.2549016754017486  0.8874010269718853  1.0000
  C   C5        1.0  0.47100849068644096  0.27660534539955806  0.8458373530066101  1.0000
  C   C6        1.0  0.4583367206877431  0.34026324807566155  0.7226669816086702  1.0000
  C   C7        1.0  0.3805814680938562  0.3632960049021574  0.678322829704634  1.0000
  C   C8        1.0  0.361816046376159  0.34639420437813784  0.5487406552536194  1.0000
  C   C9        1.0  0.2885983648642165  0.3680591440993406  0.5071329050214064  1.0000
  C   C10       1.0  0.233203225660889  0.4069441245140135  0.5942870968824319  1.0000
  C   C11       1.0  0.1578491696031866  0.42926702184805765  0.5513181379002594  1.0000
  N   N2        1.0  0.0972698811507541  0.4472129728795462  0.5167742221466864  1.0000
  C   C12       1.0  0.2512772105697212  0.42405631491636897  0.7233381648489492  1.0000
  C   C13       1.0  0.3244420818321065  0.4023565195585912  0.7652013394350612  1.0000
  C   C14       1.0  0.5205321753795533  0.38174549611801867  0.6421776311174379  1.0000
  H   H1        1.0  0.6619914259727089  0.2789867507949504  0.8402585448555606  1.0000
  H   H2        1.0  0.553369507265573  0.20548558820028573  0.9821307598774847  1.0000
  H   H3        1.0  0.4243523385272862  0.24207389268469304  0.9092719541622276  1.0000
  H   H4        1.0  0.4034997871170384  0.31474206612670774  0.4800203426393863  1.0000
  H   H5        1.0  0.2751707397614859  0.3541558027716576  0.40709687781243464  1.0000
  H   H6        1.0  0.20887654253671822  0.4544855827562788  0.7915435571268032  1.0000
  H   H7        1.0  0.3373415932389481  0.41780485684559787  0.8650548061023924  1.0000
  H   H8        1.0  0.5120575912247594  0.4325236739571672  0.5476823841841123  1.0000
  C   C15       1.0  0.9025285949108256  0.0612058550300163  0.5257689281116784  1.0000
  C   C16       1.0  0.8383173433975493  0.06439552457355102  0.4492290274764257  1.0000
  C   C17       1.0  0.8067219540784387  0.9490325177987918  0.41064563681109534  1.0000
  C   C18       1.0  0.8385589922236312  0.8292687798178174  0.4491638105866371  1.0000
  C   C19       1.0  0.9026709114882542  0.8237562321375497  0.5258538990780908  1.0000
  C   C20       1.0  0.9343637608597624  0.9403707291051676  0.5636718837092385  1.0000
  S   S1        1.0  0.7252172651958643  0.9545616287942364  0.3118187232159686  1.0000
  C   C21       1.0  0.780474773807961  0.9643596774922598  0.1628342594764951  1.0000
  O   O1        1.0  0.7985970196991343  0.8595198952772968  0.11564380546717268  1.0000
  C   C22       1.0  0.8052624768726979  0.09111066491464204  0.0961872086759532  1.0000
  C   C23       1.0  0.8583952659122864  0.09471361520425448  0.9922164072224224  1.0000
  C   C24       1.0  0.8825505499067742  0.21362022745268616  0.9293731262668592  1.0000
  C   C25       1.0  0.8539796586685302  0.33017342727208  0.9691996226689077  1.0000
  C   C26       1.0  0.8010730300319436  0.3280481989052224  0.07180689810544139  1.0000
  C   C27       1.0  0.7766672828227494  0.2094392261261755  0.13498196923010441  1.0000
  H   H9        1.0  0.023472248584758493  0.26249565958172094  0.6702104673403397  1.0000
  H   H10       1.0  0.8127628742503066  0.15628893566225566  0.41913906005841595  1.0000
  H   H11       1.0  0.8132466344117089  0.7408944089597221  0.4185740833305398  1.0000
  H   H12       1.0  0.9838664359857082  0.9369914113418318  0.6226757134158949  1.0000
  H   H13       1.0  0.9271773209753832  0.49434893655385015  0.5546832804596449  1.0000
  H   H14       1.0  0.8816401742586747  0.005705403317908253  0.9598406433543505  1.0000
  H   H15       1.0  0.9235445095550091  0.2153489160960571  0.8497742412901421  1.0000
  H   H16       1.0  0.8727659851671925  0.42212158271393574  0.9204541308204623  1.0000
  H   H17       1.0  0.7788130162701596  0.41846275615229245  0.10237632816904108  1.0000
  H   H18       1.0  0.7352334260179072  0.21108727030261587  0.21346893391159405  1.0000
  C   C28       1.0  0.9026629667260291  0.44238145688188957  0.144440787927004  1.0000
  C   C29       1.0  0.9264131481310354  0.31253491337896144  0.15218449620664964  1.0000
  C   C30       1.0  0.9392083462875994  0.2475198498552662  0.03884362194638191  1.0000
  C   C31       1.0  0.9263413481356098  0.31282623389463904  0.9169218124917289  1.0000
  C   C32       1.0  0.902536487782477  0.442580583022228  0.9071820356786886  1.0000
  C   C33       1.0  0.8910244289506611  0.5067158902634694  0.021515959388034744  1.0000
  C   C34       1.0  0.9635264363186931  0.10997496310516652  0.04694410888751732  1.0000
  O   O2        1.0  0.9403735609669728  0.03618619697208536  0.9638282249978576  1.0000
  C   C35       1.0  0.01411543174684593  0.05614343103150343  0.14923566601894422  1.0000
  C   C36       1.0  0.008038709270707711  0.9240666135411038  0.19477490209386827  1.0000
  C   C37       1.0  0.05606876789412363  0.872038476211406  0.2900966581296023  1.0000
  F   F1        1.0  0.04939234451621077  0.7448396000866413  0.33405995522367515  1.0000
  C   C38       1.0  0.11095229080845748  0.9509761483507484  0.34002760903508644  1.0000
  C   C39       1.0  0.11811068569679195  0.08187407135435265  0.29437298627547137  1.0000
  C   C40       1.0  0.07022968073377522  0.1343174997469283  0.1991153402629129  1.0000
  H   H19       1.0  0.8567397592263202  0.6867777588239556  0.3372462299455605  1.0000
  H   H20       1.0  0.934186930468465  0.26134550535190226  0.2466232578077272  1.0000
  H   H21       1.0  0.935643634132322  0.2625147255510294  0.8294583646525666  1.0000
  H   H22       1.0  0.8727144561988333  0.6068175900119068  0.014742098293056172  1.0000
  H   H23       1.0  0.8927861999712534  0.49207312783754475  0.5760382025853787  1.0000
  H   H24       1.0  0.9657053413949027  0.8615371426960212  0.15735860493224618  1.0000
  H   H25       1.0  0.1481569751444538  0.9106809798795222  0.4137132563636521  1.0000
  H   H26       1.0  0.16103322848964519  0.14267052919662015  0.3324006632084999  1.0000
  H   H27       1.0  0.0776348515427141  0.2354320560122798  0.16352317545532458  1.0000
  Zn  Zn1       1.0  0.8202796880873103  0.44048368172585106  0.5296324764211062  1.0000
  Zn  Zn2       1.0  0.9849125991456065  0.4444775942101067  0.521990061206759  1.0000
  C   C41       1.0  0.9025577738391861  0.43737045705768485  0.7630070906425943  1.0000
  C   C42       1.0  0.9026363114645606  0.4475925007632431  0.2886154911798451  1.0000
  C   C43       1.0  0.9026409806622159  0.6796165239690461  0.5206628012224861  1.0000
  C   C44       1.0  0.902553048161264  0.20534487256761036  0.5309598522729435  1.0000
  O   O3        1.0  0.9651046964133365  0.45085137924358687  0.334101581267622  1.0000
  O   O4        1.0  0.9650419589166082  0.4371418861479033  0.7117202102837683  1.0000
  O   O5        1.0  0.9651083070303053  0.6327586287191405  0.5160255211987799  1.0000
  O   O6        1.0  0.9650382921394557  0.2552346445721321  0.5297961755863825  1.0000
  O   O7        1.0  0.8401539389123299  0.629726630002311  0.5218263646426327  1.0000
  O   O8        1.0  0.8400875910977682  0.43411144735382967  0.7175209846557822  1.0000
  O   O9        1.0  0.8401503288948823  0.44782089479758835  0.3399007942246386  1.0000
  O   O10       1.0  0.8400839246000538  0.25220415086483583  0.5355954859107781  1.0000
