data_image0
_chemical_formula_structural       NC12NC2H8C7OC3FC3H9C7OC3OC4H12Zn2C4O8
_chemical_formula_sum              "N2 C45 H29 O11 F1 Zn2"
_cell_length_a       19.240039667572717
_cell_length_b       10.29937835083307
_cell_length_c       10.299374482448636
_cell_angle_alpha    85.53885586126866
_cell_angle_beta     89.98179719486372
_cell_angle_gamma    90.0188676237696

_space_group_name_H-M_alt    "P 1"
_space_group_IT_number       1

loop_
  _space_group_symop_operation_xyz
  'x, y, z'

loop_
  _atom_site_type_symbol
  _atom_site_label
  _atom_site_symmetry_multiplicity
  _atom_site_fract_x
  _atom_site_fract_y
  _atom_site_fract_z
  _atom_site_occupancy
  N   N1        1.0  0.6549713966380414  0.4216746970888954  0.5672371864537369  1.0000
  C   C1        1.0  0.5948230278495052  0.4216747810931809  0.567237104504285  1.0000
  C   C2        1.0  0.5200049907523772  0.42167489841650796  0.5672369671813258  1.0000
  C   C3        1.0  0.4835023198720989  0.3571822246352858  0.6706599666783499  1.0000
  C   C4        1.0  0.41083153750097134  0.3570713181012277  0.6707465245921169  1.0000
  C   C5        1.0  0.37367275587009663  0.42167499103991424  0.5672367394810651  1.0000
  C   C6        1.0  0.41088965262630944  0.48627885092617773  0.463727148896258  1.0000
  C   C7        1.0  0.48356030675654593  0.48616770885363225  0.46381382934166115  1.0000
  C   C8        1.0  0.2964676654328321  0.42167491239830657  0.5672366440710628  1.0000
  C   C9        1.0  0.2592527652382371  0.30839942969928824  0.6091215338470279  1.0000
  C   C10       1.0  0.18658211123663276  0.3085063561919057  0.6090301932252435  1.0000
  C   C11       1.0  0.1501353784764996  0.421674783205515  0.5672367049979572  1.0000
  C   C12       1.0  0.0753173412591939  0.42167466939843323  0.5672369536802275  1.0000
  N   N2        1.0  0.0151690243644429  0.4216746285233024  0.5672371621114649  1.0000
  C   C13       1.0  0.1866361565953454  0.534843286062535  0.5254431638695651  1.0000
  C   C14       1.0  0.2593068872551713  0.5349503927224681  0.5253516606273256  1.0000
  H   H1        1.0  0.511194651465011  0.30725043160655563  0.7514096593251964  1.0000
  H   H2        1.0  0.3837156473156311  0.3079373758463866  0.7526116738866819  1.0000
  H   H3        1.0  0.3838190120369407  0.5354128202467447  0.38186194874845025  1.0000
  H   H4        1.0  0.5112977465621233  0.5360994015496505  0.3830644125111451  1.0000
  H   H5        1.0  0.2863250194229756  0.21923289199863172  0.6403002179376813  1.0000
  H   H6        1.0  0.1588462310753803  0.2202387881865553  0.6412417797000172  1.0000
  H   H7        1.0  0.1589422133020068  0.6231108295265291  0.49323159194848243  1.0000
  H   H8        1.0  0.2864211119092182  0.6241170096137394  0.49417293175470767  1.0000
  C   C15       1.0  0.835000280674897  0.04028968931860932  0.5673011750948165  1.0000
  C   C16       1.0  0.7624872383863401  0.04030124762332066  0.551275830714133  1.0000
  C   C17       1.0  0.7258251687621373  0.9230189062692224  0.5446704935412534  1.0000
  C   C18       1.0  0.7626571835507548  0.8050572430144386  0.551282706179961  1.0000
  C   C19       1.0  0.8351467967832461  0.8030496908183541  0.5671843772236478  1.0000
  C   C20       1.0  0.8708774124922014  0.9211858894864967  0.5754435458974836  1.0000
  C   C21       1.0  0.6493425154856275  0.9229938205100149  0.5263755880471974  1.0000
  O   O1        1.0  0.6225081584782631  0.8383196290621848  0.45971221576445087  1.0000
  C   C22       1.0  0.6033018385366549  0.01892743386101836  0.5837165553797492  1.0000
  C   C23       1.0  0.541400702311161  0.05894110182093715  0.5199334444129167  1.0000
  C   C24       1.0  0.4972413217187448  0.14818482554710855  0.5739962756349484  1.0000
  F   F1        1.0  0.4379495459993056  0.18689030899751113  0.5112745622676966  1.0000
  C   C25       1.0  0.5141376645682543  0.19745271954074606  0.692605574517182  1.0000
  C   C26       1.0  0.5750408011775432  0.15718640805089223  0.7576032918777862  1.0000
  C   C27       1.0  0.6193438257197343  0.06801419372858386  0.7039451872121945  1.0000
  H   H9        1.0  0.9719626039026764  0.24774306587391126  0.5955467329359814  1.0000
  H   H10       1.0  0.7345236752286564  0.131814830914611  0.5424623865399072  1.0000
  H   H11       1.0  0.7345214613551571  0.7145901323005333  0.5452301856175505  1.0000
  H   H12       1.0  0.9267795794835196  0.9203729757427684  0.5877971533865591  1.0000
  H   H13       1.0  0.8630595934939596  0.47490691883762304  0.5721969685483264  1.0000
  H   H14       1.0  0.5275686307820024  0.021961684957669814  0.4277717902395366  1.0000
  H   H15       1.0  0.47993439113150993  0.2664305455877458  0.7344860508798297  1.0000
  H   H16       1.0  0.5877983402956144  0.19465293621965984  0.8499785241164834  1.0000
  H   H17       1.0  0.6656540482284502  0.03643934213023359  0.7570992382340003  1.0000
  C   C28       1.0  0.8351379475467873  0.42175717079901087  0.1858602236780933  1.0000
  C   C29       1.0  0.9077383857756363  0.43642208564434903  0.18348659216415997  1.0000
  C   C30       1.0  0.9442685248986117  0.4452901106146627  0.06500138509366193  1.0000
  C   C31       1.0  0.9075722429921774  0.4363582122668854  0.9482477512230725  1.0000
  C   C32       1.0  0.8350091338615077  0.4215821705753886  0.9486252779091235  1.0000
  C   C33       1.0  0.7991922512968812  0.41470819124588165  0.06793765427938725  1.0000
  C   C34       1.0  0.02101088206477253  0.4594166762802645  0.062460196165013526  1.0000
  O   O2        1.0  0.0550991236209879  0.40587245740656264  0.9766212586837608  1.0000
  C   C35       1.0  0.05907890888365541  0.5343011025018454  0.1572165454253398  1.0000
  C   C36       1.0  0.1268811607507878  0.4975817588367577  0.19538643917148546  1.0000
  C   C37       1.0  0.16401879859439994  0.5678486686534705  0.2835790114773389  1.0000
  O   O3        1.0  0.23125557150695486  0.5259547584648798  0.31887865311179553  1.0000
  C   C38       1.0  0.2748138195429486  0.5878279604564567  0.407261497509364  1.0000
  C   C39       1.0  0.13297020451322794  0.6772397273852317  0.3334769206888746  1.0000
  C   C40       1.0  0.06597968643989072  0.7152923380143323  0.2947962683681127  1.0000
  C   C41       1.0  0.029243151407047918  0.6447924094701656  0.2068447642285225  1.0000
  H   H18       1.0  0.6982504175714324  0.39209506383931814  0.39781578888201574  1.0000
  H   H19       1.0  0.9360462040950094  0.4395141925531847  0.27407739428469724  1.0000
  H   H20       1.0  0.935720262570347  0.4422140257041034  0.856853237569013  1.0000
  H   H21       1.0  0.7432226175344152  0.4034017618737351  0.0689638354467974  1.0000
  H   H22       1.0  0.8071989576991291  0.41482233617485487  0.6213975382132717  1.0000
  H   H23       1.0  0.15096834199832077  0.41326624841322546  0.15752083726676713  1.0000
  H   H24       1.0  0.324832854159701  0.5344685913787912  0.41722834627012895  1.0000
  H   H25       1.0  0.24971607629410464  0.5860269534680262  0.5044964823606422  1.0000
  H   H26       1.0  0.2855187450347718  0.6898378333179798  0.36958433390109513  1.0000
  H   H27       1.0  0.16021691407674887  0.7336797360813319  0.4016592243804191  1.0000
  H   H28       1.0  0.042545345105689636  0.800096917877529  0.3326907262923704  1.0000
  H   H29       1.0  0.9778540781146465  0.6775205183070891  0.17661559145954464  1.0000
  Zn  Zn1       1.0  0.758916658543701  0.4216712082361327  0.5672446686536214  1.0000
  Zn  Zn2       1.0  0.911223777404874  0.4216675210180387  0.5672402808126182  1.0000
  C   C42       1.0  0.8350309444759986  0.41644136281361854  0.8044471783068425  1.0000
  C   C43       1.0  0.8351111549548519  0.4268990050596517  0.33003789833155284  1.0000
  C   C44       1.0  0.8351164093414064  0.658872979966026  0.5620310930386938  1.0000
  C   C45       1.0  0.8350256378062243  0.18446582752431384  0.5724540530812483  1.0000
  O   O4        1.0  0.8929019198803805  0.4286175863486337  0.3784235787294321  1.0000
  O   O5        1.0  0.8928377584941771  0.41471900333341694  0.7560577939298032  1.0000
  O   O6        1.0  0.8929059930574217  0.6104855998592997  0.560305089757406  1.0000
  O   O7        1.0  0.892833633363262  0.23285099913696228  0.5741761855237546  1.0000
  O   O8        1.0  0.7773067506103697  0.6104877301198828  0.5603087639371507  1.0000
  O   O9        1.0  0.7772385163554018  0.41472269397960404  0.7560613986226674  1.0000
  O   O10       1.0  0.7773026780428118  0.4286212320951661  0.378425621972716  1.0000
  O   O11       1.0  0.777234391504624  0.23285463557195651  0.5741783261397793  1.0000
