data_image0
_chemical_formula_structural       NC10NC3NCH9C7OC6H10C7OC3OC4H12Zn2C4O8
_chemical_formula_sum              "N3 C45 H31 O11 Zn2"
_cell_length_a       19.437513618241372
_cell_length_b       10.299379429549807
_cell_length_c       10.299374482448636
_cell_angle_alpha    85.52536088050722
_cell_angle_beta     90.32903884356655
_cell_angle_gamma    89.52020702266324

_space_group_name_H-M_alt    "P 1"
_space_group_IT_number       1

loop_
  _space_group_symop_operation_xyz
  'x, y, z'

loop_
  _atom_site_type_symbol
  _atom_site_label
  _atom_site_symmetry_multiplicity
  _atom_site_fract_x
  _atom_site_fract_y
  _atom_site_fract_z
  _atom_site_occupancy
  N   N1        1.0  0.6480550624963026  0.4108965092289667  0.5751566174897267  1.0000
  C   C1        1.0  0.5891217873300404  0.42790831304335897  0.5721754015661527  1.0000
  C   C2        1.0  0.5156813878886295  0.44916299720138064  0.5684748894453899  1.0000
  C   C3        1.0  0.4739223317990622  0.3479711622770014  0.55684555224244  1.0000
  C   C4        1.0  0.39803309562387124  0.35803858446937054  0.5496209383208699  1.0000
  C   C5        1.0  0.35844905512930203  0.43887190544819266  0.6153414540699402  1.0000
  C   C6        1.0  0.28226804639185576  0.43026569719023056  0.60689964394702  1.0000
  C   C7        1.0  0.2491338822863889  0.30891330915144755  0.6115795747616692  1.0000
  C   C8        1.0  0.1774002079030054  0.30254334902871793  0.6044131818715046  1.0000
  C   C9        1.0  0.1378300353989943  0.4170529590768237  0.5929292440749059  1.0000
  C   C10       1.0  0.0639819146706496  0.4103448515255461  0.585594855470291  1.0000
  N   N2        1.0  0.0046131235670824  0.4049521230134916  0.5796984652765322  1.0000
  C   C11       1.0  0.1702475178569998  0.538094535625049  0.5889947080516087  1.0000
  C   C12       1.0  0.24196558492250092  0.5447184815186428  0.596223048319868  1.0000
  C   C13       1.0  0.3871204115518954  0.5311343374126689  0.7052367998524358  1.0000
  N   N3        1.0  0.4441070000819543  0.59435636045071  0.6848129487200463  1.0000
  C   C14       1.0  0.4879612163261003  0.5851293963439648  0.5717043040400094  1.0000
  H   H1        1.0  0.4963091333828132  0.25291375914151604  0.5447524397298844  1.0000
  H   H2        1.0  0.3733267886672063  0.2885406965458335  0.49132165892597324  1.0000
  H   H3        1.0  0.2785842067614424  0.21899347416588566  0.6226277604756072  1.0000
  H   H4        1.0  0.1528075360487614  0.2083110722277357  0.608328742258105  1.0000
  H   H5        1.0  0.1401116478956245  0.6273587177989832  0.5802589454166653  1.0000
  H   H6        1.0  0.2660767309267018  0.6393635838085321  0.5922919038270251  1.0000
  H   H7        1.0  0.35710696942323467  0.5514949965764031  0.7896002173075025  1.0000
  H   H8        1.0  0.5307121370389858  0.6554436596392705  0.577446815897579  1.0000
  H   H9        1.0  0.4583043926530658  0.6132674984719255  0.4810472090136806  1.0000
  C   C15       1.0  0.8263448720606725  0.026532169533992178  0.577581768123538  1.0000
  C   C16       1.0  0.8680318427829642  0.015923220720680087  0.6898617501951316  1.0000
  C   C17       1.0  0.8884125029133121  0.8933436754199569  0.7473355066572434  1.0000
  C   C18       1.0  0.8679481457645989  0.7807026062793172  0.6895843933830597  1.0000
  C   C19       1.0  0.8263299106374264  0.7893063138729741  0.5772846611067679  1.0000
  C   C20       1.0  0.8056202177131401  0.9126933929828027  0.5221299767817356  1.0000
  C   C21       1.0  0.9330284823057678  0.8820484619450665  0.865104825065151  1.0000
  O   O1        1.0  0.976673910573958  0.7905315813441091  0.878017353459297  1.0000
  C   C22       1.0  0.9281276839495597  0.9744724617350106  0.9682302441932347  1.0000
  C   C23       1.0  0.986965061675526  0.002940069285546798  0.04054451188860819  1.0000
  C   C24       1.0  0.9826872613611752  0.08874864246938641  0.13898523479195457  1.0000
  C   C25       1.0  0.9196592918538363  0.1460865216662015  0.1669414637641755  1.0000
  C   C26       1.0  0.8607160600811622  0.11731130188511485  0.09687001363711001  1.0000
  C   C27       1.0  0.8647175905119426  0.03158700733005659  0.9983381020213347  1.0000
  H   H10       1.0  0.7485474183914694  0.2539480262179412  0.36455303414345686  1.0000
  H   H11       1.0  0.8853311688452697  0.10321329617846753  0.7319203577917179  1.0000
  H   H12       1.0  0.8840467485056119  0.6861229549487635  0.7332279536032047  1.0000
  H   H13       1.0  0.7734830288418182  0.9200679949102489  0.4355699714325989  1.0000
  H   H14       1.0  0.8108210097657944  0.46519611366844477  0.5335182219803467  1.0000
  H   H15       1.0  0.036324802271284096  0.9596767823145251  0.02012530482156849  1.0000
  H   H16       1.0  0.028284485607174448  0.11074635919141906  0.19366372766061524  1.0000
  H   H17       1.0  0.9164418322184192  0.212393267164118  0.24324374880410382  1.0000
  H   H18       1.0  0.8117986934918668  0.1610055050454109  0.11929474069368684  1.0000
  H   H19       1.0  0.8181696902379876  0.008919531783547319  0.9468073388573635  1.0000
  C   C28       1.0  0.826401122135528  0.40800567014336653  0.1960514605963135  1.0000
  C   C29       1.0  0.8982649004069247  0.4214727682170476  0.19458978864578236  1.0000
  C   C30       1.0  0.9344240642111941  0.42973812377348874  0.07656309386919125  1.0000
  C   C31       1.0  0.8981004497953603  0.4214116353296484  0.9593488679655766  1.0000
  C   C32       1.0  0.8262736467468242  0.4078327919470104  0.9588149323290835  1.0000
  C   C33       1.0  0.7908201141562352  0.4015497543953679  0.0776773141096434  1.0000
  C   C34       1.0  0.010388022772573002  0.44259850628068365  0.07498622094042862  1.0000
  O   O2        1.0  0.04414305599455681  0.3884905604722564  0.9895899080871366  1.0000
  C   C35       1.0  0.04805568566655993  0.5168563179497245  0.17020471032050954  1.0000
  C   C36       1.0  0.1151805399386947  0.4790172258556189  0.20923833072499187  1.0000
  C   C37       1.0  0.15192818355582438  0.548672775103169  0.2978824139648617  1.0000
  O   O3        1.0  0.21849435823704  0.505668336198914  0.33403988745618074  1.0000
  C   C38       1.0  0.2615994965312509  0.5668240349304405  0.4229572083872568  1.0000
  C   C39       1.0  0.12117036823972605  0.658578610840705  0.34736269137025366  1.0000
  C   C40       1.0  0.05484876598461064  0.6977376027169908  0.30782822964229384  1.0000
  C   C41       1.0  0.01849822116066835  0.6278424102198386  0.21943032795238682  1.0000
  H   H20       1.0  0.6909029804461924  0.3806019931484139  0.40628801387465097  1.0000
  H   H21       1.0  0.9262860366784453  0.4240977743211367  0.28553680225369726  1.0000
  H   H22       1.0  0.9259628222139701  0.42680304521202084  0.8683078908472441  1.0000
  H   H23       1.0  0.735418391579976  0.3911667542244248  0.07800044128379757  1.0000
  H   H24       1.0  0.7987458936898294  0.4015317659740929  0.6312381320375469  1.0000
  H   H25       1.0  0.13904202283741496  0.39430236863532353  0.1716965922111633  1.0000
  H   H26       1.0  0.31112431301200716  0.5126380347589541  0.43356751833648355  1.0000
  H   H27       1.0  0.23675572861222527  0.5654371804762586  0.5198761511615533  1.0000
  H   H28       1.0  0.27217485519466056  0.6686594600115106  0.38539067013977957  1.0000
  H   H29       1.0  0.14812992608345787  0.7145701898613754  0.41587508726425804  1.0000
  H   H30       1.0  0.031633423848048015  0.7829307660954108  0.34540693942983847  1.0000
  H   H31       1.0  0.9676215375233426  0.6614193116831633  0.18854534498980313  1.0000
  Zn  Zn1       1.0  0.7509500211655276  0.4091775966435136  0.5764748072180337  1.0000
  Zn  Zn2       1.0  0.9017181695338666  0.40666036298431174  0.578390949936062  1.0000
  C   C42       1.0  0.8262963154372339  0.4026915125078241  0.8146383353421414  1.0000
  C   C43       1.0  0.8263735215921979  0.41314805832202683  0.3402275695686403  1.0000
  C   C44       1.0  0.8263300584686645  0.6451269883894974  0.5721654366067983  1.0000
  C   C45       1.0  0.826339727133181  0.1707110228863462  0.5827005374988701  1.0000
  O   O4        1.0  0.8835799852798695  0.41391294763082853  0.3893415571871277  1.0000
  O   O5        1.0  0.8835193879053463  0.4000151213992791  0.7669782822331104  1.0000
  O   O6        1.0  0.8835458643089329  0.59578484676033  0.5711796906396522  1.0000
  O   O7        1.0  0.8835534574454176  0.21814323244159395  0.5851400507451696  1.0000
  O   O8        1.0  0.769114681804208  0.5976947280466556  0.5697257057482086  1.0000
  O   O9        1.0  0.7690882053784394  0.4019265631000355  0.7655242274860627  1.0000
  O   O10       1.0  0.7691488030605447  0.41582434442598326  0.38788594100501905  1.0000
  O   O11       1.0  0.7691222752071898  0.22005461992535613  0.5836845319377599  1.0000
