data_image0
_chemical_formula_structural       NC11NC3H8C7OC3OC4H12C7OC3OC4H12Zn2C4O8
_chemical_formula_sum              "N2 C46 H32 O12 Zn2"
_cell_length_a       17.807433833752565
_cell_length_b       10.299371110280156
_cell_length_c       10.299374482448636
_cell_angle_alpha    85.56563777426875
_cell_angle_beta     88.50658755346606
_cell_angle_gamma    90.69823053252264

_space_group_name_H-M_alt    "P 1"
_space_group_IT_number       1

loop_
  _space_group_symop_operation_xyz
  'x, y, z'

loop_
  _atom_site_type_symbol
  _atom_site_label
  _atom_site_symmetry_multiplicity
  _atom_site_fract_x
  _atom_site_fract_y
  _atom_site_fract_z
  _atom_site_occupancy
  N   N1        1.0  0.7078695474425248  0.4388328088688931  0.5350647683659613  1.0000
  C   C1        1.0  0.6570334010744879  0.404090116148484  0.6016183806745359  1.0000
  C   C2        1.0  0.5937881112868401  0.3608730709028014  0.6844025807066387  1.0000
  C   C3        1.0  0.6054845584041567  0.2972934225386441  0.8071050446433106  1.0000
  C   C4        1.0  0.5441472987331706  0.25575670362882796  0.887605773283944  1.0000
  C   C5        1.0  0.4709590866238868  0.2774862109581553  0.8460447563311617  1.0000
  C   C6        1.0  0.4582859500823738  0.3412205205479304  0.7228821280875342  1.0000
  C   C7        1.0  0.38053019934251703  0.3642808133624871  0.6785407865897262  1.0000
  C   C8        1.0  0.36176785350581486  0.34743906119893064  0.5489501284456235  1.0000
  C   C9        1.0  0.2885497017088688  0.36912985067992765  0.5073450258009216  1.0000
  C   C10       1.0  0.2331510129262771  0.4079811156899391  0.5945103795534059  1.0000
  C   C11       1.0  0.1577964739327173  0.430330696144575  0.5515441446996516  1.0000
  N   N2        1.0  0.0972167972368208  0.4482980984548417  0.5170024189403697  1.0000
  C   C12       1.0  0.2512219195111454  0.4250335716539342  0.7235699518917043  1.0000
  C   C13       1.0  0.3243872586641185  0.403307791643871  0.7654304820962217  1.0000
  C   C14       1.0  0.5204805180572125  0.3827526706203903  0.6423978144118965  1.0000
  H   H1        1.0  0.6619419870228267  0.27987095539855056  0.8404661993845604  1.0000
  H   H2        1.0  0.553321651909098  0.20628174141233413  0.9823294603354211  1.0000
  H   H3        1.0  0.4243037322501436  0.24291498402994738  0.9094750233259667  1.0000
  H   H4        1.0  0.40345444642451733  0.3158132668053013  0.48022081815526274  1.0000
  H   H5        1.0  0.2751244971817055  0.3552726586473043  0.40730227968258914  1.0000
  H   H6        1.0  0.2088184737160923  0.4554364540364466  0.7917840789873516  1.0000
  H   H7        1.0  0.3372842694051313  0.41871044460845463  0.8652909667744335  1.0000
  H   H8        1.0  0.5120047810829167  0.43358993765153175  0.5479088926872882  1.0000
  C   C15       1.0  0.9024961331772138  0.06219293648444246  0.5259209460255416  1.0000
  C   C16       1.0  0.8938649937066738  0.07130441684764821  0.39033336532170404  1.0000
  C   C17       1.0  0.8886630384992804  0.9586924034508821  0.32215430414223545  1.0000
  C   C18       1.0  0.8939022270686815  0.8360373636706651  0.39064273058760546  1.0000
  C   C19       1.0  0.9025973944577776  0.8249281591635109  0.526157105731363  1.0000
  C   C20       1.0  0.9066473321808186  0.938597259322146  0.593058879471507  1.0000
  C   C21       1.0  0.8803326658918909  0.9682045462578651  0.17879069028019745  1.0000
  O   O1        1.0  0.9111406282813662  0.8839307438982208  0.11333716214505785  1.0000
  C   C22       1.0  0.8370438527000115  0.07323904987412022  0.1096865767997337  1.0000
  C   C23       1.0  0.8580663777118069  0.11894194164692484  0.9815660572776874  1.0000
  C   C24       1.0  0.8174434797795431  0.21698499934200677  0.9140683434926373  1.0000
  O   O2        1.0  0.8414523844912971  0.2594075878741027  0.786854014096197  1.0000
  C   C25       1.0  0.8056564596317012  0.3580428290196813  0.7070779246425616  1.0000
  C   C26       1.0  0.754411745460082  0.26929683115929426  0.9754818097804439  1.0000
  C   C27       1.0  0.7326181979174147  0.22328573645586092  0.10212100705107718  1.0000
  C   C28       1.0  0.7733745550509203  0.12552741207234797  0.16886033590272498  1.0000
  H   H9        1.0  0.9199304783344904  0.2523659996610317  0.7815105434958491  1.0000
  H   H10       1.0  0.8920144848694388  0.16620714078773524  0.33738837152946144  1.0000
  H   H11       1.0  0.8904577328873391  0.7491064768299605  0.3380789589760591  1.0000
  H   H12       1.0  0.9133017918322192  0.9307691861087533  0.6975869469495501  1.0000
  H   H13       1.0  0.9065626099219987  0.4932284284356915  0.5780611241038653  1.0000
  H   H14       1.0  0.9066491052458064  0.07923834715735634  0.933938427460764  1.0000
  H   H15       1.0  0.8363201824725914  0.37190295566166887  0.6117825118594653  1.0000
  H   H16       1.0  0.8067546588956405  0.45151444885474734  0.7540470344261148  1.0000
  H   H17       1.0  0.7467841974196254  0.32838322600402603  0.6900444582629359  1.0000
  H   H18       1.0  0.7217885672329758  0.34501571442589385  0.9261056993863397  1.0000
  H   H19       1.0  0.6837517577211213  0.26314414434589306  0.1485400406138715  1.0000
  H   H20       1.0  0.7546157597205152  0.08989898480092195  0.26611130589106047  1.0000
  C   C29       1.0  0.9026163674112013  0.44364972526352386  0.1446532793280828  1.0000
  C   C30       1.0  0.9810910173608747  0.4602218960343021  0.138645980140639  1.0000
  C   C31       1.0  0.02057675397948655  0.4700495332373942  0.018333135082849727  1.0000
  C   C32       1.0  0.9809114339830762  0.46015365912602957  0.9034154403632  1.0000
  C   C33       1.0  0.9024771423742891  0.4434713466179774  0.9074247103402784  1.0000
  C   C34       1.0  0.8637622344146102  0.4356564233225144  0.028529899895921362  1.0000
  C   C35       1.0  0.10352855481141376  0.4861922170400732  0.011950325053755373  1.0000
  O   O3        1.0  0.14037945422158304  0.4335457831465448  0.9243767193355112  1.0000
  C   C36       1.0  0.14467169031114624  0.5620741918233627  0.10483310116322553  1.0000
  C   C37       1.0  0.21796370165745382  0.5271379441901136  0.1395856636976358  1.0000
  C   C38       1.0  0.2581015007916816  0.5983781268775494  0.22594913668660688  1.0000
  O   O4        1.0  0.33078265846381316  0.5582526470915066  0.25785735917491537  1.0000
  C   C39       1.0  0.37786129498305576  0.6212681586681235  0.34408517390112725  1.0000
  C   C40       1.0  0.2245320541723128  0.7069491819444782  0.2774556686369636  1.0000
  C   C41       1.0  0.15211736764822503  0.743239977397679  0.2421522724008236  1.0000
  C   C42       1.0  0.11241314868527597  0.6717773249687968  0.1560096439573484  1.0000
  H   H21       1.0  0.7546532101564772  0.41039157838205464  0.3634591449285256  1.0000
  H   H22       1.0  0.01168946094688783  0.4640577643765682  0.227818729447137  1.0000
  H   H23       1.0  0.011336939837719884  0.46674893110208315  0.8106121925545486  1.0000
  H   H24       1.0  0.80326401264292  0.42287963900591463  0.03235737296547625  1.0000
  H   H25       1.0  0.872416888186045  0.4359809654959095  0.5815883364091414  1.0000
  H   H26       1.0  0.24400649336332503  0.44345856361685265  0.10047236805024795  1.0000
  H   H27       1.0  0.4319321993069589  0.5692251995940802  0.3515185820835578  1.0000
  H   H28       1.0  0.3507326103773156  0.6188076966842087  0.44257785018698526  1.0000
  H   H29       1.0  0.38942489324474194  0.7235555105055806  0.3059193899427948  1.0000
  H   H30       1.0  0.2539795210390763  0.7641030667984678  0.3442983286352559  1.0000
  H   H31       1.0  0.126780211368837  0.8274255644965829  0.28126191801338374  1.0000
  H   H32       1.0  0.05686287841683013  0.7031537956631579  0.12837286793831848  1.0000
  Zn  Zn1       1.0  0.8202267513411019  0.4415608105592679  0.5298598482632091  1.0000
  Zn  Zn2       1.0  0.9848595752357323  0.4455594745945026  0.5222179222358014  1.0000
  C   C43       1.0  0.9025011031173567  0.4383313048508217  0.7632430887442139  1.0000
  C   C44       1.0  0.9025870214390597  0.4487906625738325  0.28883472628459583  1.0000
  C   C45       1.0  0.9025753251961721  0.6807560733069025  0.5209372315978973  1.0000
  C   C46       1.0  0.902512742962798  0.2063643324194504  0.5311406547971795  1.0000
  O   O5        1.0  0.9650544705874323  0.45202781446424933  0.3343232641416911  1.0000
  O   O6        1.0  0.9649861578989439  0.4381280667958225  0.711954131688598  1.0000
  O   O7        1.0  0.9650452506959118  0.6338891124317136  0.5162904772017916  1.0000
  O   O8        1.0  0.9649953216314398  0.25626677677696774  0.5299868238600818  1.0000
  O   O9        1.0  0.8400909487642928  0.6308535070136698  0.522090949239912  1.0000
  O   O10       1.0  0.8400318561836695  0.43509402171294775  0.7177545349614347  1.0000
  O   O11       1.0  0.8401001692011036  0.4489937244913189  0.340122105928635  1.0000
  O   O12       1.0  0.8400410202230342  0.2532326774922955  0.5357857630164249  1.0000
