data_image0
_chemical_formula_structural       NC10NC5H10C7OC4NC3H9C7OC4NC3H9Zn2C4O8
_chemical_formula_sum              "N4 C47 H28 O10 Zn2"
_cell_length_a       19.4436361288709
_cell_length_b       10.299371701877257
_cell_length_c       10.299375074045738
_cell_angle_alpha    85.5592431839292
_cell_angle_beta     89.69773134605877
_cell_angle_gamma    89.42830201241743

_space_group_name_H-M_alt    "P 1"
_space_group_IT_number       1

loop_
  _space_group_symop_operation_xyz
  'x, y, z'

loop_
  _atom_site_type_symbol
  _atom_site_label
  _atom_site_symmetry_multiplicity
  _atom_site_fract_x
  _atom_site_fract_y
  _atom_site_fract_z
  _atom_site_occupancy
  N   N1        1.0  0.6478643007656669  0.40985774828099375  0.5625521524029287  1.0000
  C   C1        1.0  0.5890292424514668  0.4197515778115932  0.5769405514446275  1.0000
  C   C2        1.0  0.5157010522379217  0.4320904795618514  0.5949383888465185  1.0000
  C   C3        1.0  0.4735145567350703  0.4001466041657251  0.5002479853942374  1.0000
  C   C4        1.0  0.3976108126532558  0.41058188508499205  0.5055802450400251  1.0000
  C   C5        1.0  0.3578688963949826  0.3857741604095042  0.6126486468088412  1.0000
  C   C6        1.0  0.2817487526476079  0.38969801796670667  0.5996901015127485  1.0000
  C   C7        1.0  0.2411906442318298  0.44730673029299384  0.6934870473895227  1.0000
  C   C8        1.0  0.1695276159255084  0.45095037193445364  0.6829439944768607  1.0000
  C   C9        1.0  0.1374279035587944  0.39658913061553647  0.5788903876628733  1.0000
  C   C10       1.0  0.0636356367231237  0.400294102218113  0.5681920681180908  1.0000
  N   N2        1.0  0.004311659235314699  0.40327270489053535  0.5595913285093044  1.0000
  C   C11       1.0  0.1772610557981916  0.33827311530905013  0.48547642994701534  1.0000
  C   C12       1.0  0.2489405093661412  0.33457539070193865  0.49576767267860666  1.0000
  C   C13       1.0  0.385997477833162  0.34524015396481  0.7437345243078317  1.0000
  C   C14       1.0  0.444664723367408  0.38833546695648336  0.7909955466110234  1.0000
  C   C15       1.0  0.48888126900639284  0.4862349869851461  0.7166612274926856  1.0000
  H   H1        1.0  0.49561138291465456  0.37108013241260873  0.4099257861807051  1.0000
  H   H2        1.0  0.37291484450907475  0.4331286150851561  0.41242576506458106  1.0000
  H   H3        1.0  0.2650646000848133  0.4905522407421654  0.7743556157907978  1.0000
  H   H4        1.0  0.1391865245647132  0.49622403932685955  0.7558854679701761  1.0000
  H   H5        1.0  0.1529152333990313  0.2952230745568363  0.4049424344795536  1.0000
  H   H6        1.0  0.2786157796135123  0.28705795118774047  0.4235217234491375  1.0000
  H   H7        1.0  0.3550259352724723  0.2809873257485782  0.8079604622987806  1.0000
  H   H8        1.0  0.4598111304560769  0.3542135324758733  0.8889219987125363  1.0000
  H   H9        1.0  0.4587805369526782  0.5769631010492902  0.6914421643331448  1.0000
  H   H10       1.0  0.5321683599931363  0.5117855916059204  0.779758924079837  1.0000
  C   C16       1.0  0.826055301458738  0.0251954482998602  0.5609450378665828  1.0000
  C   C17       1.0  0.8294055499677805  0.03452654783693698  0.42424883298825344  1.0000
  C   C18       1.0  0.8303143546407603  0.9220784349456042  0.35524714333605467  1.0000
  C   C19       1.0  0.8294140383488564  0.7992579542683118  0.4245661664432041  1.0000
  C   C20       1.0  0.8261272360244745  0.787924876246234  0.561209659164231  1.0000
  C   C21       1.0  0.8242859274619785  0.901498525352209  0.6285941488394333  1.0000
  C   C22       1.0  0.8345743138110334  0.9317743079010089  0.2109580951378125  1.0000
  O   O1        1.0  0.8676807529321641  0.8454368227446241  0.15573583272211722  1.0000
  C   C23       1.0  0.8012655021167827  0.03933416252058852  0.12932049754344987  1.0000
  C   C24       1.0  0.8307297726600205  0.08347986302760746  0.009102428202012458  1.0000
  C   C25       1.0  0.7992347273049579  0.1839949599850781  0.9305712480740258  1.0000
  C   C26       1.0  0.8300334447411033  0.2293008923817783  0.8081558894933987  1.0000
  N   N3        1.0  0.8547942415002482  0.26571725117024325  0.7097516673780873  1.0000
  C   C27       1.0  0.7377619803166287  0.24029372703555074  0.9712547272826733  1.0000
  C   C28       1.0  0.7077172120031116  0.1959487870102059  0.08973802427837763  1.0000
  C   C29       1.0  0.739014779703185  0.09573481705216458  0.16825944682278293  1.0000
  H   H11       1.0  0.8207906715607917  0.2148819871010219  0.8189833506197803  1.0000
  H   H12       1.0  0.8320824785845389  0.12942098865526286  0.3713386251453221  1.0000
  H   H13       1.0  0.8306244104305732  0.7124182797969429  0.371542500820891  1.0000
  H   H14       1.0  0.8217035069518887  0.8935010307252258  0.7339771763039502  1.0000
  H   H15       1.0  0.8254434879407874  0.456100099152383  0.6137419476599915  1.0000
  H   H16       1.0  0.8784293229754726  0.040519547685910595  0.9771285238535619  1.0000
  H   H17       1.0  0.7129713911321225  0.31799090568087696  0.9112196220711466  1.0000
  H   H18       1.0  0.6599002927699181  0.23892789549306093  0.1205598679682538  1.0000
  H   H19       1.0  0.714160883466255  0.06144971345300698  0.25862452326324226  1.0000
  C   C30       1.0  0.8261146609013773  0.40670209549742253  0.17969044504467124  1.0000
  C   C31       1.0  0.879065164961012  0.49883496552645656  0.17083949308406599  1.0000
  C   C32       1.0  0.9052377045848612  0.5463943327934964  0.04912269977447514  1.0000
  C   C33       1.0  0.8789537841836828  0.49859928714295454  0.9356150193755117  1.0000
  C   C34       1.0  0.8260678520692788  0.40641827544347464  0.9424642909300931  1.0000
  C   C35       1.0  0.7998310119294278  0.3612566579838845  0.06497872574569685  1.0000
  C   C36       1.0  0.9616435506873365  0.6426713033656337  0.03971046498517539  1.0000
  O   O2        1.0  0.005595806858530228  0.6371742998555316  0.9497088170192085  1.0000
  C   C37       1.0  0.9681780920495227  0.7451962465013515  0.13231837888789943  1.0000
  C   C38       1.0  0.03358734746917991  0.7905489651798878  0.16354781467938628  1.0000
  C   C39       1.0  0.04026143283889261  0.8884376387737525  0.24974319223534858  1.0000
  C   C40       1.0  0.10743177184852759  0.9335484944769439  0.2819890360389812  1.0000
  N   N4        1.0  0.16142915654370515  0.9698069232176898  0.3079072983505984  1.0000
  C   C41       1.0  0.981532740715663  0.9423737562345726  0.30444282164364256  1.0000
  C   C42       1.0  0.9163527998151569  0.8990284546703953  0.2727112273337857  1.0000
  C   C43       1.0  0.9095419516187896  0.801412292618183  0.18679263843959348  1.0000
  H   H20       1.0  0.7269140195253181  0.2313595776100552  0.4038216000285604  1.0000
  H   H21       1.0  0.9005410546021385  0.5326395845803498  0.2588562496380413  1.0000
  H   H22       1.0  0.8994296322546003  0.5344569318073149  0.8417123794226149  1.0000
  H   H23       1.0  0.75901027079014  0.2902282736460666  0.07099834204643973  1.0000
  H   H24       1.0  0.8061480065905847  0.3701994691425261  0.6176969163146744  1.0000
  H   H25       1.0  0.07930776035569975  0.7489841365929579  0.1217732223355652  1.0000
  H   H26       1.0  0.9861280375981641  0.01816697958159308  0.3711102293508899  1.0000
  H   H27       1.0  0.8709751413934983  0.9415656506937928  0.3143344942849817  1.0000
  H   H28       1.0  0.8584524548197995  0.7709625315394837  0.16190277407777143  1.0000
  Zn  Zn1       1.0  0.7507273092120389  0.40795397283094204  0.5617052338737891  1.0000
  Zn  Zn2       1.0  0.9014486406485146  0.40516586866032633  0.5604489250418541  1.0000
  C   C44       1.0  0.8260746947607946  0.4012982406879635  0.7982818906598346  1.0000
  C   C45       1.0  0.82610290111873  0.4118232089328804  0.3238723825779328  1.0000
  C   C46       1.0  0.8261104143512379  0.6437547858076269  0.5559842573285221  1.0000
  C   C47       1.0  0.8260671299462325  0.16936510443298158  0.5661700850384905  1.0000
  O   O3        1.0  0.8832969136832356  0.41247816462803955  0.37178439331223956  1.0000
  O   O4        1.0  0.8832746852328938  0.3985261988542119  0.7494159963875144  1.0000
  O   O5        1.0  0.8833027581152231  0.5943129390806234  0.5537589500721076  1.0000
  O   O6        1.0  0.8832687893767748  0.21669143467949814  0.5674413426803018  1.0000
  O   O7        1.0  0.7689071090499859  0.5964284077646298  0.5547128166572273  1.0000
  O   O8        1.0  0.7688790363159179  0.40064322787131346  0.7503697942652747  1.0000
  O   O9        1.0  0.7689012649035127  0.41459514896929717  0.3727366296995731  1.0000
  O   O10       1.0  0.7688731405873905  0.21880840969574544  0.5683936764368658  1.0000
