data_image0
_chemical_formula_structural       NC10NC3NH7C7OC6H10C7OC3NC3H11Zn2C4O8
_chemical_formula_sum              "N4 C43 H28 O10 Zn2"
_cell_length_a       19.210446455230148
_cell_length_b       10.299379429549807
_cell_length_c       10.298749378158432
_cell_angle_alpha    85.5342726072926
_cell_angle_beta     89.99958857852239
_cell_angle_gamma    89.94476483549958

_space_group_name_H-M_alt    "P 1"
_space_group_IT_number       1

loop_
  _space_group_symop_operation_xyz
  'x, y, z'

loop_
  _atom_site_type_symbol
  _atom_site_label
  _atom_site_symmetry_multiplicity
  _atom_site_fract_x
  _atom_site_fract_y
  _atom_site_fract_z
  _atom_site_occupancy
  N   N1        1.0  0.6553159644673419  0.420389038733167  0.566718850077859  1.0000
  C   C1        1.0  0.5950872113710858  0.422596628916591  0.5669492621701226  1.0000
  C   C2        1.0  0.5202825191641733  0.42533363651274936  0.5672347132915487  1.0000
  C   C3        1.0  0.48466114792007287  0.5415677857461099  0.5823079730688678  1.0000
  C   C4        1.0  0.4119956469486087  0.5417193348063913  0.5822553197150362  1.0000
  C   C5        1.0  0.3751156998115359  0.426042626131226  0.5673209610047285  1.0000
  C   C6        1.0  0.2977936976922708  0.42468610527781414  0.5671708206717729  1.0000
  C   C7        1.0  0.2600219491599846  0.5282675073327074  0.5037686065679803  1.0000
  C   C8        1.0  0.1872437300965917  0.5268652252115413  0.5036600029221543  1.0000
  C   C9        1.0  0.1512358160556881  0.4221390672269507  0.5669025244963779  1.0000
  C   C10       1.0  0.0763064189037158  0.42083694145152584  0.5667661299532705  1.0000
  N   N2        1.0  0.016068665407882  0.41978998811391355  0.5666565036343847  1.0000
  C   C11       1.0  0.1882838912247725  0.3186833657142085  0.6302796851882217  1.0000
  C   C12       1.0  0.2610639934033491  0.31981136272403843  0.6304386324243669  1.0000
  C   C13       1.0  0.4133467714205922  0.3116287846351897  0.5525352664853647  1.0000
  N   N3        1.0  0.48411647788543033  0.3140738508690324  0.5527000066353043  1.0000
  H   H1        1.0  0.5127539282065726  0.6310041370484745  0.5943267838484536  1.0000
  H   H2        1.0  0.3847186964663755  0.6317374369733919  0.5956687654727439  1.0000
  H   H3        1.0  0.2867350369861935  0.6095295615040186  0.45274616227670483  1.0000
  H   H4        1.0  0.1590833571052957  0.6072994043153983  0.4539683404112227  1.0000
  H   H5        1.0  0.1609310241442454  0.23728575725221512  0.6798721844998312  1.0000
  H   H6        1.0  0.2885796364675193  0.23949623030510536  0.681568094346136  1.0000
  H   H7        1.0  0.3870896147540639  0.22074772824856326  0.5390758650264473  1.0000
  C   C14       1.0  0.835703248683725  0.038697595861309386  0.5668417548478673  1.0000
  C   C15       1.0  0.877908934184579  0.028730990944171753  0.6785888487503988  1.0000
  C   C16       1.0  0.8985438462179205  0.9064658874423877  0.7358022024980018  1.0000
  C   C17       1.0  0.8778241825657774  0.7935090787589185  0.6783125593283901  1.0000
  C   C18       1.0  0.8356880360551874  0.8014714697133354  0.566544826640113  1.0000
  C   C19       1.0  0.81472080880601  0.9245395356678137  0.5116549064022458  1.0000
  C   C20       1.0  0.9437143785756034  0.8958577769092214  0.8530010746840953  1.0000
  O   O1        1.0  0.9878763894514375  0.8049971390551993  0.8653506091513719  1.0000
  C   C21       1.0  0.9387820593506736  0.9882243574989406  0.9561947778824473  1.0000
  C   C22       1.0  0.9983297356108016  0.01758517204640464  0.02775274729701016  1.0000
  C   C23       1.0  0.9940265550536767  0.10334493584733728  0.1262534821178397  1.0000
  C   C24       1.0  0.9302643958294345  0.1597423905441604  0.1550249837770049  1.0000
  C   C25       1.0  0.8706101885864351  0.13007272594079988  0.08571130756717293  1.0000
  C   C26       1.0  0.8746338269649643  0.04439308536671427  0.9871229472541239  1.0000
  H   H8        1.0  0.7569368707101339  0.2649141487441038  0.3548073434358603  1.0000
  H   H9        1.0  0.8954223686857057  0.11628692174286459  0.7204260977823942  1.0000
  H   H10       1.0  0.8941231734796219  0.6991775307882236  0.7217503434468397  1.0000
  H   H11       1.0  0.7821837335895107  0.9314189436219755  0.4255057134595652  1.0000
  H   H12       1.0  0.8199856513546443  0.47712198651670723  0.5229765424867094  1.0000
  H   H13       1.0  0.04826482314723579  0.9750585987344247  0.006695138810340673  1.0000
  H   H14       1.0  0.04017389444604991  0.12603464950342325  0.18034580018709367  1.0000
  H   H15       1.0  0.9270284198633014  0.22601277696995425  0.23137251516270874  1.0000
  H   H16       1.0  0.8211231857147064  0.1730371585030024  0.10876882058306825  1.0000
  H   H17       1.0  0.8275254278610364  0.021019852162244446  0.9361907880686247  1.0000
  C   C27       1.0  0.8356635350115037  0.4201125875008993  0.18529223322799826  1.0000
  C   C28       1.0  0.8736840211427432  0.5369211126785021  0.1752204860972837  1.0000
  C   C29       1.0  0.8922110249311678  0.5967896829130597  0.05288864096805401  1.0000
  C   C30       1.0  0.873686786654742  0.5369699723974084  0.9399764371776729  1.0000
  C   C31       1.0  0.8357277252913446  0.4200564452676303  0.9480943536968862  1.0000
  C   C32       1.0  0.8167970726370313  0.36255051394386584  0.07117406501531476  1.0000
  C   C33       1.0  0.9329248731612751  0.7194972837301179  0.04215367909205825  1.0000
  O   O2        1.0  0.9764196101173724  0.7377689448240199  0.9507921084498787  1.0000
  C   C34       1.0  0.9242977841514248  0.8214684415361355  0.13500516878486413  1.0000
  C   C35       1.0  0.8591752909497741  0.8441519169399152  0.1917119029894252  1.0000
  C   C36       1.0  0.851386938491219  0.9416726345577151  0.27837556750073733  1.0000
  N   N4        1.0  0.7851130576247876  0.963635602649678  0.33605066738043843  1.0000
  C   C37       1.0  0.9088248134649952  0.017832872080986828  0.3077336327088207  1.0000
  C   C38       1.0  0.9733987322312588  0.9971010739380759  0.25056689982723324  1.0000
  C   C39       1.0  0.9811469635793262  0.8998921118545953  0.16427992555627724  1.0000
  H   H18       1.0  0.7647460893450434  0.1983867054287083  0.4117635290077635  1.0000
  H   H19       1.0  0.8895802358076451  0.5807431138656163  0.26274682123162685  1.0000
  H   H20       1.0  0.8883662835718118  0.5824702472246888  0.8455498667292036  1.0000
  H   H21       1.0  0.7874934527073336  0.27250982043923266  0.07818577480465794  1.0000
  H   H22       1.0  0.7642561891145341  0.1989105059748384  0.7561489058613735  1.0000
  H   H23       1.0  0.8142626384258154  0.787215903417873  0.16769885918352623  1.0000
  H   H24       1.0  0.7419500073383521  0.9074319040780001  0.3148520283801952  1.0000
  H   H25       1.0  0.7787337242393112  0.036168858466547604  0.4005112628206562  1.0000
  H   H26       1.0  0.9034745024664571  0.09346056066603126  0.3744381871415361  1.0000
  H   H27       1.0  0.017567696497551744  0.056498283593697796  0.27317247058573146  1.0000
  H   H28       1.0  0.03171694253473456  0.8851625830271226  0.12127642491483037  1.0000
  Zn  Zn1       1.0  0.759421401132363  0.4202127008504353  0.5667083592888795  1.0000
  Zn  Zn2       1.0  0.9119632139093612  0.4199557420281095  0.5666776352167617  1.0000
  C   C40       1.0  0.8357141572729804  0.41489308830443394  0.8039104360875091  1.0000
  C   C41       1.0  0.8356721234986345  0.42527699047719647  0.3294756849219298  1.0000
  C   C42       1.0  0.8356868891445347  0.6572913500819442  0.5614253521703572  1.0000
  C   C43       1.0  0.8356993396121798  0.1828771683855568  0.5719608387014363  1.0000
  O   O3        1.0  0.8935638289569423  0.4269070306762752  0.3778533110228559  1.0000
  O   O4        1.0  0.8935981581232031  0.4130670425507261  0.7555091176305964  1.0000
  O   O5        1.0  0.8935753585092879  0.6088067056956732  0.5597006963768023  1.0000
  O   O6        1.0  0.8935865765102873  0.23116737691695777  0.573661634900642  1.0000
  O   O7        1.0  0.7777979864764021  0.6090010660506888  0.5597243596086512  1.0000
  O   O8        1.0  0.7778207860501828  0.4132629633089733  0.7555327110037433  1.0000
  O   O9        1.0  0.7777864567996772  0.4271029062906291  0.3778753428813091  1.0000
  O   O10       1.0  0.7778092043585577  0.23136324323478363  0.573683764138756  1.0000
