data_image0
_chemical_formula_structural       NC10NC5H10C6NCOC6H11C6SCOC6H10Zn2C4O8
_chemical_formula_sum              "N3 C45 H31 O10 S1 Zn2"
_cell_length_a       19.4436361288709
_cell_length_b       10.29965916528486
_cell_length_c       10.302041481415108
_cell_angle_alpha    85.55947833871805
_cell_angle_beta     89.70072369043199
_cell_angle_gamma    89.4352492152202

_space_group_name_H-M_alt    "P 1"
_space_group_IT_number       1

loop_
  _space_group_symop_operation_xyz
  'x, y, z'

loop_
  _atom_site_type_symbol
  _atom_site_label
  _atom_site_symmetry_multiplicity
  _atom_site_fract_x
  _atom_site_fract_y
  _atom_site_fract_z
  _atom_site_occupancy
  N   N1        1.0  0.6479154356030813  0.40977146680734244  0.5628850364342963  1.0000
  C   C1        1.0  0.5890814091110799  0.419665518183703  0.5772693658865322  1.0000
  C   C2        1.0  0.5157545071892843  0.43200469841711464  0.5952621139444896  1.0000
  C   C3        1.0  0.4735633540249634  0.4000584763078552  0.5005974735669889  1.0000
  C   C4        1.0  0.3976604275784424  0.41049365848044994  0.5059280170951821  1.0000
  C   C5        1.0  0.357919860014306  0.3856902161806135  0.6129691598592224  1.0000
  C   C6        1.0  0.2817996122804899  0.38961353080682204  0.6000138854282722  1.0000
  C   C7        1.0  0.24124778729039653  0.44722387349337756  0.6937845135723153  1.0000
  C   C8        1.0  0.1695847033942635  0.4508670613441985  0.6832441079687142  1.0000
  C   C9        1.0  0.1374786344115437  0.39650375614669353  0.579219403415445  1.0000
  C   C10       1.0  0.0636863116606238  0.40020826707062795  0.5685237699307641  1.0000
  N   N2        1.0  0.0043622892239506  0.4031864993865979  0.5599251897346398  1.0000
  C   C11       1.0  0.1773054682739201  0.33818614233556854  0.48583168492955053  1.0000
  C   C12       1.0  0.2489849670303043  0.3344888644532926  0.4961203479155625  1.0000
  C   C13       1.0  0.386049439271655  0.34516172439686343  0.7440219758254771  1.0000
  C   C14       1.0  0.4447207554410755  0.388257482753376  0.7912693053250681  1.0000
  C   C15       1.0  0.488941552463136  0.48615187277082383  0.7169514327263673  1.0000
  H   H1        1.0  0.4956558276756294  0.37098972856846313  0.41029980581281955  1.0000
  H   H2        1.0  0.3729633479225659  0.43303663687288996  0.41279722413796716  1.0000
  H   H3        1.0  0.2651267474962201  0.4904709612980125  0.7746305890343013  1.0000
  H   H4        1.0  0.1392485288430336  0.4961419839164982  0.7561651008340757  1.0000
  H   H5        1.0  0.1529546632905228  0.295134530311262  0.40532008883408444  1.0000
  H   H6        1.0  0.27865519531030475  0.28697025325687564  0.42389476622073974  1.0000
  H   H7        1.0  0.355075530980863  0.2809127849593389  0.8082330790789753  1.0000
  H   H8        1.0  0.4598676609273178  0.35413977064755175  0.8891711771415469  1.0000
  H   H9        1.0  0.4588459611015732  0.5768767087516193  0.6917361823240591  1.0000
  H   H10       1.0  0.5322320213434855  0.5117039271291568  0.7800318308680543  1.0000
  C   C16       1.0  0.8260816571024457  0.025119396489298174  0.5612901602754761  1.0000
  C   C17       1.0  0.8265538595351644  0.03443890026837715  0.42450163885991987  1.0000
  C   C18       1.0  0.8278059446552055  0.9222789971325762  0.3556714411043449  1.0000
  C   C19       1.0  0.8266834375766758  0.7992461112270586  0.4247968791893262  1.0000
  C   C20       1.0  0.8262026317781941  0.7878284267280841  0.5615312608822678  1.0000
  C   C21       1.0  0.8261464777089699  0.9013686753425143  0.6290041081281248  1.0000
  N   N3        1.0  0.8272321105736268  0.9354107998502126  0.21564221310945775  1.0000
  C   C22       1.0  0.8594748575057246  0.8437138420889987  0.13566666467131716  1.0000
  O   O1        1.0  0.9069202259281341  0.7700024489042527  0.18223995746494914  1.0000
  C   C23       1.0  0.8394880711573189  0.8379343157293178  0.9974981542186523  1.0000
  C   C24       1.0  0.7758912222945401  0.8889825254625318  0.9516911090411595  1.0000
  C   C25       1.0  0.7574655478853737  0.8823547058058268  0.821351443725753  1.0000
  C   C26       1.0  0.8019961110244049  0.8244746404703616  0.7355446833282735  1.0000
  C   C27       1.0  0.8649875494581684  0.7726505700232925  0.779980852436331  1.0000
  C   C28       1.0  0.883675795681884  0.7789172425836965  0.9102138868714196  1.0000
  H   H11       1.0  0.8245344609061157  0.21481580268473044  0.8193226111126259  1.0000
  H   H12       1.0  0.8264765924453336  0.12906825386736687  0.37069166079497173  1.0000
  H   H13       1.0  0.8249772076019611  0.7125053036771886  0.3720178541121246  1.0000
  H   H14       1.0  0.8257916596522368  0.893318831712784  0.7344525456720443  1.0000
  H   H15       1.0  0.8251031606272813  0.456016425702902  0.6139898132537223  1.0000
  H   H16       1.0  0.8076092444517864  0.02192215005128495  0.16987529614680041  1.0000
  H   H17       1.0  0.7398474420719794  0.9323228891951774  0.016457918698316032  1.0000
  H   H18       1.0  0.7084501239935945  0.9217055723460111  0.7869807119504313  1.0000
  H   H19       1.0  0.7875961410040732  0.8194183178448822  0.6347299951662633  1.0000
  H   H20       1.0  0.8994040562086583  0.7275451049409741  0.713464241730728  1.0000
  H   H21       1.0  0.9328635296516354  0.7383778412981854  0.9423649903656268  1.0000
  C   C29       1.0  0.8261550658096797  0.4066029568546634  0.18012362579233354  1.0000
  C   C30       1.0  0.8577058522587934  0.5291156469037479  0.16898774457437726  1.0000
  C   C31       1.0  0.8737103983550023  0.589544676116895  0.04648881522846948  1.0000
  C   C32       1.0  0.8577710645061652  0.5287105890187773  0.9338816629391893  1.0000
  C   C33       1.0  0.8261292548971199  0.4063448808498282  0.9426978489454294  1.0000
  C   C34       1.0  0.8105357887551026  0.34586970283937113  0.06638677913364588  1.0000
  S   S1        1.0  0.914629679384388  0.7453180025803798  0.03367619528547272  1.0000
  C   C35       1.0  0.9993439014486545  0.6739539180116874  0.035519014452007  1.0000
  O   O2        1.0  0.02625701864154939  0.6502845102893071  0.9282279164629785  1.0000
  C   C36       1.0  0.03724906106526604  0.6419117054838985  0.15871882335144782  1.0000
  C   C37       1.0  0.09825156981133487  0.5670630936481875  0.15838115086183469  1.0000
  C   C38       1.0  0.1340944237374848  0.5355049057181334  0.2740257914927149  1.0000
  C   C39       1.0  0.1096647733713485  0.5783027573789965  0.39117966099586465  1.0000
  C   C40       1.0  0.049401461263522295  0.6529789062470372  0.392891411859035  1.0000
  C   C41       1.0  0.013353374595650669  0.6849150116106144  0.2775480001564721  1.0000
  H   H22       1.0  0.7665842969713822  0.17580297449450022  0.4084220691618561  1.0000
  H   H23       1.0  0.8700691286921884  0.5778138908781605  0.2552149508433199  1.0000
  H   H24       1.0  0.870425812178146  0.5770719257953187  0.839820643550957  1.0000
  H   H25       1.0  0.7862139778899154  0.2514209021844156  0.07405118176314907  1.0000
  H   H26       1.0  0.8142868177250691  0.35964810927817603  0.6187220252471879  1.0000
  H   H27       1.0  0.11811344179649019  0.5322390658356237  0.06888663454025656  1.0000
  H   H28       1.0  0.18083815859143781  0.47765821100643935  0.27277254299836384  1.0000
  H   H29       1.0  0.1374733657962106  0.55373840648606  0.4806031829376245  1.0000
  H   H30       1.0  0.030607361150006396  0.6863962024659478  0.4837306595501343  1.0000
  H   H31       1.0  0.9671317377784335  0.7436940961909391  0.2820244709184492  1.0000
  Zn  Zn1       1.0  0.7507782983441282  0.4078677136272888  0.5620383980431627  1.0000
  Zn  Zn2       1.0  0.901499415953709  0.40507964153103404  0.5607825036606318  1.0000
  C   C42       1.0  0.8261317607242693  0.40122015621758633  0.798553344196784  1.0000
  C   C43       1.0  0.8261475996990904  0.4117288070311833  0.3242676717498092  1.0000
  C   C44       1.0  0.8261764089213518  0.6436620290633788  0.5563116743670835  1.0000
  C   C45       1.0  0.8261028998215812  0.16928537484918227  0.5665094107385709  1.0000
  O   O3        1.0  0.8833429717485897  0.41238536474337417  0.3721671231811081  1.0000
  O   O4        1.0  0.8833302293484298  0.39844653672404107  0.7497003239130089  1.0000
  O   O5        1.0  0.8833655122317308  0.5942214289492425  0.5540884684773757  1.0000
  O   O6        1.0  0.8833076374391523  0.21661048279249018  0.5677788816944529  1.0000
  O   O7        1.0  0.7689700254249651  0.5963368733186805  0.5550420204310875  1.0000
  O   O8        1.0  0.7689347427883706  0.4005635413825359  0.7506538071294055  1.0000
  O   O9        1.0  0.7689474852799765  0.4145023246744379  0.37311904531711226  1.0000
  O   O10       1.0  0.7689121509629555  0.21872743340208478  0.5687309011744917  1.0000
