data_image0
_chemical_formula_structural       NC11NC3H8C7OC3NC3H11C7OC4NC3H9Zn2C4O8
_chemical_formula_sum              "N4 C45 H28 O10 Zn2"
_cell_length_a       17.807433833752565
_cell_length_b       10.298746005989749
_cell_length_c       10.299375074045738
_cell_angle_alpha    85.54279281073397
_cell_angle_beta     88.51814048155188
_cell_angle_gamma    90.6940108729131

_space_group_name_H-M_alt    "P 1"
_space_group_IT_number       1

loop_
  _space_group_symop_operation_xyz
  'x, y, z'

loop_
  _atom_site_type_symbol
  _atom_site_label
  _atom_site_symmetry_multiplicity
  _atom_site_fract_x
  _atom_site_fract_y
  _atom_site_fract_z
  _atom_site_occupancy
  N   N1        1.0  0.7076447142106517  0.4391540004890686  0.5346906213670213  1.0000
  C   C1        1.0  0.6568175983744349  0.4043991537616858  0.6012534460216108  1.0000
  C   C2        1.0  0.5935835414765499  0.3611669903574992  0.6840491054354423  1.0000
  C   C3        1.0  0.6052966195247035  0.2975649718448228  0.8067684332896856  1.0000
  C   C4        1.0  0.5439702640273422  0.2560135906571064  0.8872801810986235  1.0000
  C   C5        1.0  0.4707764112849745  0.27775069052494694  0.84571340273357  1.0000
  C   C6        1.0  0.4580865846812082  0.34150744748715756  0.7225338686267637  1.0000
  C   C7        1.0  0.3803248207140542  0.364575830980268  0.6781864115274119  1.0000
  C   C8        1.0  0.3615481571961914  0.34775101822240284  0.548599295022687  1.0000
  C   C9        1.0  0.2883243611706524  0.3694494033783333  0.5069884405569309  1.0000
  C   C10       1.0  0.2329342387798209  0.40829146572983466  0.5941444151395285  1.0000
  C   C11       1.0  0.15757387286897023  0.4306488863088427  0.5511722532141472  1.0000
  N   N2        1.0  0.0969895117569581  0.4486225915058144  0.5166257625292356  1.0000
  C   C12       1.0  0.251019393555976  0.42532707397789626  0.7232003892406595  1.0000
  C   C13       1.0  0.3241904077940825  0.4035936594764147  0.7650666816199667  1.0000
  C   C14       1.0  0.5202702505550998  0.383054257158278  0.6420385370380417  1.0000
  H   H1        1.0  0.6617585751284109  0.2801364117331886  0.8401342076815592  1.0000
  H   H2        1.0  0.5531574711132041  0.20652132788937894  0.9820169866007378  1.0000
  H   H3        1.0  0.4241297200436405  0.24316776382248717  0.9091528206511399  1.0000
  H   H4        1.0  0.403228033912655  0.31613240110477636  0.47987763229039415  1.0000
  H   H5        1.0  0.2748881366031452  0.35560522029601294  0.40694864604241476  1.0000
  H   H6        1.0  0.20862265173016883  0.4557227543998681  0.7914071767278552  1.0000
  H   H7        1.0  0.3370983577791511  0.41898345223579625  0.8649238207636369  1.0000
  H   H8        1.0  0.5117816341248137  0.433908900078366  0.5475361518754114  1.0000
  C   C15       1.0  0.9022848037179445  0.06248543340361823  0.5256424969430016  1.0000
  C   C16       1.0  0.9374368933493108  0.07189409590058737  0.401502500850313  1.0000
  C   C17       1.0  0.9544215405422507  0.9595092564581896  0.33807893947813006  1.0000
  C   C18       1.0  0.9374374599155003  0.8366575283138742  0.4014533355638943  1.0000
  C   C19       1.0  0.9023565884076676  0.825281353751733  0.5256847226311276  1.0000
  C   C20       1.0  0.8848220336609557  0.9387624131255796  0.5868449282878405  1.0000
  C   C21       1.0  0.9921803365130433  0.9692685301448262  0.20750649013176403  1.0000
  O   O1        1.0  0.03805217863436994  0.8824159233447697  0.18016488833293431  1.0000
  C   C22       1.0  0.977902013847874  0.07749787168202715  0.10795940803622961  1.0000
  C   C23       1.0  0.9067657246364625  0.13516468077908272  0.09915208947588572  1.0000
  C   C24       1.0  0.8936076106872017  0.23655296642783252  0.0038520962908281664  1.0000
  N   N3        1.0  0.8212686470705782  0.2950323711472642  0.9960039907798528  1.0000
  C   C25       1.0  0.9516323439132341  0.27988366187769853  0.9160224020725214  1.0000
  C   C26       1.0  0.02208300336133684  0.22203613528597899  0.9230053896851995  1.0000
  C   C27       1.0  0.035182701656834015  0.12107102122831925  0.01800387362352196  1.0000
  H   H9        1.0  0.8369064293062821  0.2520278693611011  0.7610204697748777  1.0000
  H   H10       1.0  0.952379885250907  0.1667922435656528  0.3545855988062374  1.0000
  H   H11       1.0  0.9509898568470319  0.7498140538229473  0.35312481578890664  1.0000
  H   H12       1.0  0.8577298223631203  0.9307580457359608  0.6825361087315762  1.0000
  H   H13       1.0  0.8363539256767573  0.5964748204875386  0.760603116846081  1.0000
  H   H14       1.0  0.8612658677845975  0.10062922645653916  0.16522827388096673  1.0000
  H   H15       1.0  0.7776141892564428  0.2634922339051702  0.060983051536221744  1.0000
  H   H16       1.0  0.8108512883064264  0.37042204671166656  0.9252462165586279  1.0000
  H   H17       1.0  0.9421696155837729  0.35803400719992884  0.841971467135  1.0000
  H   H18       1.0  0.06666253173303005  0.25551450651382934  0.8546395077216733  1.0000
  H   H19       1.0  0.09028110537678113  0.07776650900576532  0.021975209079369007  1.0000
  C   C28       1.0  0.9023462523689247  0.4440263721976325  0.14427567869118696  1.0000
  C   C29       1.0  0.9601828659881986  0.5385517358801191  0.13315422165814517  1.0000
  C   C30       1.0  0.9887705090805777  0.5872938397238423  0.010314575259267711  1.0000
  C   C31       1.0  0.9600612077075453  0.5383110214429723  0.8979345359737776  1.0000
  C   C32       1.0  0.9022951259596933  0.44374042038070227  0.9070515899247829  1.0000
  C   C33       1.0  0.8736372266026016  0.3973933690069831  0.030690913326199443  1.0000
  C   C34       1.0  0.050381329668623964  0.6861192738690434  0.9984842083667154  1.0000
  O   O2        1.0  0.09839009300619184  0.6826013972302405  0.9066214710573268  1.0000
  C   C35       1.0  0.057518048598273364  0.7889470256562161  0.09078570926306884  1.0000
  C   C36       1.0  0.12896367697744493  0.8372494954538421  0.1192300981728669  1.0000
  C   C37       1.0  0.13625285995073844  0.9354468784353991  0.2051144821829316  1.0000
  C   C38       1.0  0.20962210866459485  0.9835867833289864  0.23450071499666247  1.0000
  N   N4        1.0  0.26860271840041383  0.022280225879968807  0.2581201738708858  1.0000
  C   C39       1.0  0.07210347789613292  0.9867423619677518  0.2622874877518442  1.0000
  C   C40       1.0  0.0009083101854492348  0.9404578038371463  0.2333306448399619  1.0000
  C   C41       1.0  0.9934697397977926  0.842526795268987  0.14772876705169602  1.0000
  H   H20       1.0  0.7939917053959595  0.2642013869080726  0.3726613202675566  1.0000
  H   H21       1.0  0.9836405162864775  0.5733264173482961  0.22025112176829764  1.0000
  H   H22       1.0  0.9824265019803138  0.5750938574159141  0.8031538303475534  1.0000
  H   H23       1.0  0.8290496731061778  0.32452055711290684  0.03846091364637605  1.0000
  H   H24       1.0  0.8805371522901956  0.4066214348522421  0.5831388217872702  1.0000
  H   H25       1.0  0.17890410484009567  0.797740441234446  0.07552985508947185  1.0000
  H   H26       1.0  0.07712221233584682  0.06274883615198057  0.3287383537013955  1.0000
  H   H27       1.0  0.951342261774723  0.9809547435289963  0.27686475717960546  1.0000
  H   H28       1.0  0.9376653422502839  0.8097734712574869  0.12501280119377278  1.0000
  Zn  Zn1       1.0  0.820001211442255  0.44188295356862795  0.5294849780286279  1.0000
  Zn  Zn2       1.0  0.984632998055912  0.4458830139177774  0.5218419918211223  1.0000
  C   C42       1.0  0.902302645664688  0.43862026948323707  0.7628703720330532  1.0000
  C   C43       1.0  0.9023333617531724  0.44914738040169744  0.2884566419190806  1.0000
  C   C44       1.0  0.9023395079738606  0.6810985174352211  0.5205015017326851  1.0000
  C   C45       1.0  0.902296443115168  0.20666757061701713  0.5308255839831408  1.0000
  O   O3        1.0  0.96480594004557  0.4523783733450475  0.33394461653997043  1.0000
  O   O4        1.0  0.9647817840246437  0.4384242501200475  0.7115811738083897  1.0000
  O   O5        1.0  0.9648107084964516  0.6342284809275582  0.515866635415992  1.0000
  O   O6        1.0  0.9647769594034838  0.2565741505001471  0.5296590601613915  1.0000
  O   O7        1.0  0.8398571939139345  0.6311918156226501  0.5216679122897041  1.0000
  O   O8        1.0  0.8398282695902098  0.43538914528422756  0.7173823815197544  1.0000
  O   O9        1.0  0.839852425761453  0.4493432238358632  0.3397442627679388  1.0000
  O   O10       1.0  0.8398234451088972  0.2535389916647446  0.5354588037616814  1.0000
