data_image0
_chemical_formula_structural       NC9NC5H8C6NCOC6H11C6SCOC6H10Zn2C4O8
_chemical_formula_sum              "N3 C44 H29 O10 S1 Zn2"
_cell_length_a       17.807436237873137
_cell_length_b       10.29965916528486
_cell_length_c       10.302041481415108
_cell_angle_alpha    85.55947833871805
_cell_angle_beta     89.38796050765288
_cell_angle_gamma    88.40731929758992

_space_group_name_H-M_alt    "P 1"
_space_group_IT_number       1

loop_
  _space_group_symop_operation_xyz
  'x, y, z'

loop_
  _atom_site_type_symbol
  _atom_site_label
  _atom_site_symmetry_multiplicity
  _atom_site_fract_x
  _atom_site_fract_y
  _atom_site_fract_z
  _atom_site_occupancy
  N   N1        1.0  0.7077056934199633  0.3882073860787494  0.557874470372949  1.0000
  C   C1        1.0  0.6471124880480876  0.3530225571301564  0.5468418018225638  1.0000
  C   C2        1.0  0.5717412003237602  0.3092565046800215  0.5331183600774598  1.0000
  C   C3        1.0  0.5536413761056359  0.2378797745653627  0.4281153498021315  1.0000
  C   C4        1.0  0.4804597288482905  0.1952748459492819  0.41470812655269795  1.0000
  C   C5        1.0  0.4243291231894683  0.22366914084914136  0.5062713497740168  1.0000
  C   C6        1.0  0.3465559138630176  0.1785059592533358  0.492105036660037  1.0000
  C   C7        1.0  0.2843927349639058  0.260250635792701  0.5180642104289104  1.0000
  C   C8        1.0  0.2110687471920459  0.2174426707884718  0.5046706013525848  1.0000
  C   C9        1.0  0.1478559306662897  0.3018784894464639  0.5309944493403698  1.0000
  N   N2        1.0  0.0970458134886604  0.3697590456648392  0.5521580949471718  1.0000
  C   C10       1.0  0.1993243497721367  0.09263206613706676  0.46529239279093204  1.0000
  C   C11       1.0  0.2606301567672717  0.010873540620282451  0.4393248267415686  1.0000
  C   C12       1.0  0.3338346518825947  0.053287046619417966  0.45251581611987857  1.0000
  C   C13       1.0  0.4431204292006545  0.29554014642776183  0.6114936989288899  1.0000
  C   C14       1.0  0.5163549207017357  0.33795474013596327  0.6247452445026693  1.0000
  H   H1        1.0  0.5960351036514607  0.2154198978272679  0.35641076800968086  1.0000
  H   H2        1.0  0.4675410061968606  0.141622756913939  0.3317883920639668  1.0000
  H   H3        1.0  0.2929059807266841  0.3577025086592318  0.546965825841482  1.0000
  H   H4        1.0  0.1428538333526256  0.05860073712954117  0.45468903614790124  1.0000
  H   H5        1.0  0.2514187534227629  0.9142421535787992  0.40922331410069335  1.0000
  H   H6        1.0  0.3804648244408869  0.9875506441692641  0.43345074607457224  1.0000
  H   H7        1.0  0.4014434399891122  0.31746054627359643  0.6844923336212663  1.0000
  H   H8        1.0  0.5298022433071757  0.3928277339126349  0.7066239587246446  1.0000
  C   C15       1.0  0.9023132647195391  0.997625543799115  0.5549017699277041  1.0000
  C   C16       1.0  0.9028290424456411  0.006929331620802337  0.41810959679874005  1.0000
  C   C17       1.0  0.9041966711814416  0.8947277562803835  0.3492697162128702  1.0000
  C   C18       1.0  0.9029705780731022  0.7717322299312674  0.4184038350539536  1.0000
  C   C19       1.0  0.9024454030543928  0.7603305477290176  0.5551419349932649  1.0000
  C   C20       1.0  0.9023840670338031  0.8738726652769778  0.6226152164989927  1.0000
  N   N3        1.0  0.9035698831404473  0.9078786574849214  0.20924492588595012  1.0000
  C   C21       1.0  0.9387880216836437  0.8151085886978706  0.12902003254162997  1.0000
  O   O1        1.0  0.9906116942091995  0.739818107103375  0.17522641301967012  1.0000
  C   C22       1.0  0.916956835521565  0.8099942674724384  0.9910060871878184  1.0000
  C   C23       1.0  0.8474912084496248  0.8631591231560372  0.9456908596072071  1.0000
  C   C24       1.0  0.8273651951338098  0.8571445513224344  0.8154936867434053  1.0000
  C   C25       1.0  0.8760050813488306  0.7977824088428649  0.729342555281284  1.0000
  C   C26       1.0  0.9448094301367136  0.7438618418640666  0.7732915886518237  1.0000
  C   C27       1.0  0.9652222456459583  0.7495065276217192  0.9033801000718253  1.0000
  H   H9        1.0  0.900623291774287  0.1873734441585191  0.8129461857965938  1.0000
  H   H10       1.0  0.9027446450746535  0.10156125684206141  0.3643002162683415  1.0000
  H   H11       1.0  0.9011068955598659  0.6850482095466576  0.3656380048746266  1.0000
  H   H12       1.0  0.9019965060264866  0.8658346307889946  0.728066397980184  1.0000
  H   H13       1.0  0.901244471651165  0.42855513957283414  0.6076089899756021  1.0000
  H   H14       1.0  0.8821362001124794  0.9950431007378416  0.1636297596944789  1.0000
  H   H15       1.0  0.8081212736183286  0.9076991048384537  0.010736408945472897  1.0000
  H   H16       1.0  0.7738265809143215  0.8981267612442823  0.7815020090945013  1.0000
  H   H17       1.0  0.8602762682839283  0.7932053495578535  0.6286392273325094  1.0000
  H   H18       1.0  0.9824019251392084  0.6976109181475162  0.7065088225635909  1.0000
  H   H19       1.0  0.01894907088267761  0.707330048088191  0.9351508169030205  1.0000
  C   C28       1.0  0.9023934476526831  0.37910666095784884  0.17373466774829027  1.0000
  C   C29       1.0  0.9368557709358626  0.5005692699799149  0.16235479280661003  1.0000
  C   C30       1.0  0.9543372318958819  0.5604656319573724  0.03973209447621695  1.0000
  C   C31       1.0  0.9369270010319672  0.5001620416849035  0.9272482068613601  1.0000
  C   C32       1.0  0.902365254884357  0.3788494439981476  0.9363090905065743  1.0000
  C   C33       1.0  0.8853328087309713  0.3188932515593368  0.0601186106482583  1.0000
  S   S1        1.0  0.9990325834245778  0.7148770728552627  0.02660303082851123  1.0000
  C   C34       1.0  0.09156431515083363  0.6406935087324934  0.027790724059368666  1.0000
  O   O2        1.0  0.12096100061081416  0.6161283720308128  0.9202914971322085  1.0000
  C   C35       1.0  0.1329673992519229  0.6073897273685773  0.1506973985528548  1.0000
  C   C36       1.0  0.19959927801293698  0.5305108150477071  0.14988797144345  1.0000
  C   C37       1.0  0.2387497448764797  0.49775969644624984  0.2652554262294562  1.0000
  C   C38       1.0  0.2120657029439379  0.5413706217332661  0.38259821911718483  1.0000
  C   C39       1.0  0.1462412345959112  0.6180524689623221  0.3847760081232978  1.0000
  C   C40       1.0  0.10686659591640102  0.6511883356038408  0.26971136940515406  1.0000
  H   H20       1.0  0.8373254311313199  0.15028932756343805  0.4024937935713979  1.0000
  H   H21       1.0  0.950359942376221  0.548856036350261  0.24848638935567235  1.0000
  H   H22       1.0  0.9507495409563598  0.548102200039998  0.8330893236999932  1.0000
  H   H23       1.0  0.8587665578319554  0.2252539353897669  0.06797110270019968  1.0000
  H   H24       1.0  0.8894299862519196  0.3325468153302895  0.612424848688494  1.0000
  H   H25       1.0  0.22129402259451814  0.49502573953142526  0.060239856031287786  1.0000
  H   H26       1.0  0.2898070364149412  0.43835726526563135  0.26364069140746205  1.0000
  H   H27       1.0  0.24244049894914754  0.5158807384343298  0.4718066870846742  1.0000
  H   H28       1.0  0.12571279689839043  0.6520952750391535  0.47576059743616983  1.0000
  H   H29       1.0  0.05637958212225258  0.7115057800579452  0.27454528892048713  1.0000
  Zn  Zn1       1.0  0.8200608397911187  0.3828801258262684  0.5562323559972933  1.0000
  Zn  Zn2       1.0  0.9846906466912041  0.3750757164596856  0.5538108803133694  1.0000
  C   C41       1.0  0.9023679919516392  0.37372463596635064  0.792164566379455  1.0000
  C   C42       1.0  0.902385292562248  0.3842327596232957  0.31787877144391863  1.0000
  C   C43       1.0  0.9024167603271709  0.6161650228198767  0.5499225512689838  1.0000
  C   C44       1.0  0.9023364677371702  0.14179081515360115  0.5601208561131146  1.0000
  O   O3        1.0  0.9648587084008863  0.38298572690932375  0.3653359102302187  1.0000
  O   O4        1.0  0.964844790119818  0.36904732298568366  0.7428692095037408  1.0000
  O   O5        1.0  0.9648833289414304  0.5648210409172936  0.5472570812127198  1.0000
  O   O6        1.0  0.9648201134074846  0.18721202096360878  0.5609479419966483  1.0000
  O   O7        1.0  0.8399313168947654  0.5707438239870231  0.5490952951335162  1.0000
  O   O8        1.0  0.8398927783426261  0.3749716663362588  0.7447073546853145  1.0000
  O   O9        1.0  0.8399066967235788  0.3889100255294242  0.3671724943306922  1.0000
  O   O10       1.0  0.8398681017218937  0.19313631026249234  0.5627846234412153  1.0000
