data_image0
_chemical_formula_structural       NC10NC3NH7C6NCOC6H11C6SCOC6H10Zn2C4O8
_chemical_formula_sum              "N4 C43 H28 O10 S1 Zn2"
_cell_length_a       19.210446455230148
_cell_length_b       10.29965916528486
_cell_length_c       10.302041481415108
_cell_angle_alpha    85.55947833871805
_cell_angle_beta     89.98692140310256
_cell_angle_gamma    89.96405462056514

_space_group_name_H-M_alt    "P 1"
_space_group_IT_number       1

loop_
  _space_group_symop_operation_xyz
  'x, y, z'

loop_
  _atom_site_type_symbol
  _atom_site_label
  _atom_site_symmetry_multiplicity
  _atom_site_fract_x
  _atom_site_fract_y
  _atom_site_fract_z
  _atom_site_occupancy
  N   N1        1.0  0.6557420019071647  0.4206522669506363  0.5681510209817295  1.0000
  C   C1        1.0  0.5955136198426947  0.422859614115775  0.5683829239456979  1.0000
  C   C2        1.0  0.5207093876730389  0.42559632047150986  0.5686702235401382  1.0000
  C   C3        1.0  0.4851072036208884  0.5418168938734449  0.5838211011424728  1.0000
  C   C4        1.0  0.4124417362298904  0.5419684444164632  0.5837685706105624  1.0000
  C   C5        1.0  0.3755426860302822  0.4263052287926248  0.5687569463989424  1.0000
  C   C6        1.0  0.2982204569326826  0.4249488595393016  0.5686058925132718  1.0000
  C   C7        1.0  0.2604749070012721  0.52853854823441  0.50529582304161  1.0000
  C   C8        1.0  0.1876964477832565  0.5271364104637983  0.5051862610897031  1.0000
  C   C9        1.0  0.1516621475037496  0.4224021025255098  0.5683358769579168  1.0000
  C   C10       1.0  0.0767325315600773  0.42110012022159693  0.5681986031844997  1.0000
  N   N2        1.0  0.0164946021436063  0.4200532822294656  0.5680882699227714  1.0000
  C   C11       1.0  0.1886840497196657  0.3189381106625915  0.6316209893230509  1.0000
  C   C12       1.0  0.261464336600386  0.3200659725644428  0.631780686014932  1.0000
  C   C13       1.0  0.4137548648317996  0.31190473685580855  0.5538948342014223  1.0000
  N   N3        1.0  0.48452499295479073  0.3143495579282749  0.5540612526496351  1.0000
  H   H1        1.0  0.5132146976643017  0.6312426876418578  0.5958995091473689  1.0000
  H   H2        1.0  0.3851794392953797  0.6319755711132116  0.597241607590326  1.0000
  H   H3        1.0  0.2872087000734149  0.6098074435687113  0.454346051719837  1.0000
  H   H4        1.0  0.159556473048923  0.6075771458774295  0.4555662886684  1.0000
  H   H5        1.0  0.1613106222927626  0.23753405157863972  0.6811411474872306  1.0000
  H   H6        1.0  0.2889594325992742  0.23974389257098228  0.6828381120128391  1.0000
  H   H7        1.0  0.3874829043553962  0.2210347392326144  0.5403752455426292  1.0000
  C   C14       1.0  0.8360604020228865  0.038992239948578256  0.56800420504456  1.0000
  C   C15       1.0  0.8365383084772189  0.0483196736827336  0.43121952149206  1.0000
  C   C16       1.0  0.8378055182982191  0.936180797500768  0.3623995001584872  1.0000
  C   C17       1.0  0.8366694517710421  0.8131290607167101  0.43151581497736724  1.0000
  C   C18       1.0  0.8361828380256364  0.8017033017816078  0.5682462888827091  1.0000
  C   C19       1.0  0.8361260056371103  0.9152426073698793  0.635718679731875  1.0000
  N   N4        1.0  0.8372247525242618  0.9493029635071704  0.2223656082811849  1.0000
  C   C20       1.0  0.8698569792909541  0.8581474759227122  0.1426521153487188  1.0000
  O   O1        1.0  0.9178754692989515  0.7852328588960289  0.1896110241706639  1.0000
  C   C21       1.0  0.8496287603419872  0.8520323004708604  0.004321160690714088  1.0000
  C   C22       1.0  0.7852636862957908  0.9020124933546609  0.9579972270352295  1.0000
  C   C23       1.0  0.7666154369107302  0.8950752412169024  0.8275078055766856  1.0000
  C   C24       1.0  0.8116839119219201  0.8379430021117742  0.7420629708943429  1.0000
  C   C25       1.0  0.8754362624167346  0.7871767815239207  0.7870111079586879  1.0000
  C   C26       1.0  0.8943502553816753  0.7937572960782259  0.9173960326103465  1.0000
  H   H8        1.0  0.8344945162986479  0.2286626632276152  0.8260240809208212  1.0000
  H   H9        1.0  0.8364601080310141  0.1429477296930015  0.37740891543265676  1.0000
  H   H10       1.0  0.8349426112022694  0.7263595995087647  0.3787229223795179  1.0000
  H   H11       1.0  0.835766901516341  0.9071868050854381  0.7411642334636468  1.0000
  H   H12       1.0  0.8350700856911165  0.4698728367328833  0.6206959052144074  1.0000
  H   H13       1.0  0.8173648498165652  0.03548477612852463  0.17643920490394938  1.0000
  H   H14       1.0  0.7487845112357863  0.9447475540686413  0.022471087984494043  1.0000
  H   H15       1.0  0.7170079257743329  0.9336029647942883  0.7927386970215928  1.0000
  H   H16       1.0  0.7971099958679735  0.8326448528724332  0.6411312458237424  1.0000
  H   H17       1.0  0.9102685071744334  0.7426492917621529  0.7207742201656218  1.0000
  H   H18       1.0  0.9441321580347266  0.7540439314533913  0.9499469133482723  1.0000
  C   C27       1.0  0.8361346974787341  0.42047703310672535  0.18683826719655938  1.0000
  C   C28       1.0  0.8680666051491074  0.5435195728597257  0.17595881752008324  1.0000
  C   C29       1.0  0.8842644799334534  0.6042173752149957  0.05358996640321556  1.0000
  C   C30       1.0  0.868132605135048  0.5431156101198795  0.9408532659026538  1.0000
  C   C31       1.0  0.8361085747803958  0.42021852364504464  0.9494122805693981  1.0000
  C   C32       1.0  0.8203267456361029  0.3594814759841529  0.07297447361379539  1.0000
  S   S1        1.0  0.9256780499525646  0.7606778816628152  0.04110992119104395  1.0000
  C   C33       1.0  0.011415586849989223  0.690736449602344  0.043641261976024914  1.0000
  O   O2        1.0  0.03865380402443286  0.6675190086542018  0.9365689025005026  1.0000
  C   C34       1.0  0.04977862604270644  0.659330799260798  0.16714914809332582  1.0000
  C   C35       1.0  0.11151802135325761  0.5855066360945149  0.16730727837481485  1.0000
  C   C36       1.0  0.14779384300538778  0.5545503769173585  0.28324323466903456  1.0000
  C   C37       1.0  0.12306909197044558  0.5969379680278508  0.40019855023403395  1.0000
  C   C38       1.0  0.06207782250584404  0.6706020819620302  0.4014205062059293  1.0000
  C   C39       1.0  0.025594288980345548  0.7019328119864379  0.2857841107944956  1.0000
  H   H19       1.0  0.775844336936831  0.18867664607259682  0.4146525443756448  1.0000
  H   H20       1.0  0.8805792251502346  0.5924254401327911  0.26228650730751646  1.0000
  H   H21       1.0  0.8809402172338873  0.591689465031839  0.8468950989887261  1.0000
  H   H22       1.0  0.7957111367613119  0.2646242257868572  0.08044119877932099  1.0000
  H   H23       1.0  0.8241230855761879  0.37332287551482035  0.625340206515439  1.0000
  H   H24       1.0  0.1316198170220806  0.5510161596185399  0.07797419100709257  1.0000
  H   H25       1.0  0.19510222398448596  0.4974886754454435  0.2823698996200259  1.0000
  H   H26       1.0  0.15121360136915452  0.5728406221170681  0.48984808873590135  1.0000
  H   H27       1.0  0.043056696977310516  0.7037037585244681  0.49210700334449897  1.0000
  H   H28       1.0  0.978814312779075  0.7599356712063712  0.2898849115047015  1.0000
  Zn  Zn1       1.0  0.7598474079975936  0.4204759463800727  0.5681404087383521  1.0000
  Zn  Zn2       1.0  0.9123891780497249  0.4202190168804707  0.5681095122995194  1.0000
  C   C40       1.0  0.836111110876962  0.4150938410945353  0.8052677961870633  1.0000
  C   C41       1.0  0.8361271411804346  0.4256027579007453  0.33098225247262403  1.0000
  C   C42       1.0  0.8361562984068891  0.6575364637420495  0.5630264892391574  1.0000
  C   C43       1.0  0.8360819013458016  0.18315857504912447  0.5732236281595542  1.0000
  O   O3        1.0  0.8940134110647964  0.42721982894260013  0.37934656386688603  1.0000
  O   O4        1.0  0.8940005147414016  0.41328078693313497  0.7568796610339092  1.0000
  O   O5        1.0  0.8940362238282014  0.6090562716831955  0.5612680923627336  1.0000
  O   O6        1.0  0.8939776499306524  0.23144435360323112  0.574958035197803  1.0000
  O   O7        1.0  0.778258884061647  0.6092506097464057  0.561291885843783  1.0000
  O   O8        1.0  0.7782231752245337  0.41347668528954573  0.756903385779649  1.0000
  O   O9        1.0  0.7782360716404791  0.42741568257311524  0.37936872753297557  1.0000
  O   O10       1.0  0.7782003104986599  0.23164019791214896  0.5749802962078661  1.0000
