data_image0
_chemical_formula_structural       NC11NC3H8C6NCOC6H11C6NCOC6H11Zn2C4O8
_chemical_formula_sum              "N4 C44 H30 O10 Zn2"
_cell_length_a       17.807433833752565
_cell_length_b       10.29965916528486
_cell_length_c       10.299662537453274
_cell_angle_alpha    85.55779495060091
_cell_angle_beta     88.51134067563711
_cell_angle_gamma    90.70223866869796

_space_group_name_H-M_alt    "P 1"
_space_group_IT_number       1

loop_
  _space_group_symop_operation_xyz
  'x, y, z'

loop_
  _atom_site_type_symbol
  _atom_site_label
  _atom_site_symmetry_multiplicity
  _atom_site_fract_x
  _atom_site_fract_y
  _atom_site_fract_z
  _atom_site_occupancy
  N   N1        1.0  0.707859125950196  0.4389958567612673  0.5350930365742856  1.0000
  C   C1        1.0  0.6570246922858309  0.4042449265327295  0.6016453613239485  1.0000
  C   C2        1.0  0.5937815328194666  0.3610176349207559  0.6844279597972545  1.0000
  C   C3        1.0  0.6054811567738961  0.2974227865114141  0.8071280498574465  1.0000
  C   C4        1.0  0.5441459884197937  0.25587609063150785  0.8876272210630889  1.0000
  C   C5        1.0  0.4709567081304118  0.27761074116208606  0.8460670081540664  1.0000
  C   C6        1.0  0.45828037944778777  0.34136031007166556  0.7229067626985735  1.0000
  C   C7        1.0  0.3805234840977179  0.36442609348440524  0.6785662790462248  1.0000
  C   C8        1.0  0.3617543844027354  0.3476026711437912  0.5489781371010851  1.0000
  C   C9        1.0  0.288535160793206  0.36929861095581695  0.5073738393596907  1.0000
  C   C10       1.0  0.2331421285204654  0.40813680095869986  0.5945374976961046  1.0000
  C   C11       1.0  0.1577864805924141  0.43049170161789396  0.551572094083965  1.0000
  N   N2        1.0  0.0972059123925272  0.44846338098633964  0.5170310365824471  1.0000
  C   C12       1.0  0.25121977260414213  0.42517099463699237  0.7235945641171047  1.0000
  C   C13       1.0  0.324386194122625  0.40344003001532447  0.7654542844661556  1.0000
  C   C14       1.0  0.5204728566900366  0.3829024349740724  0.6424240061399278  1.0000
  H   H1        1.0  0.6619394436282025  0.2799961903693504  0.840488559188181  1.0000
  H   H2        1.0  0.5533227781504397  0.20638940495134173  0.982349075574888  1.0000
  H   H3        1.0  0.4243029270450608  0.24303170285491715  0.9094960481721641  1.0000
  H   H4        1.0  0.40343647706619573  0.31598721319014667  0.4802501637421661  1.0000
  H   H5        1.0  0.2751047077335049  0.3554555925589331  0.4073330358151197  1.0000
  H   H6        1.0  0.2088207534387179  0.4555636447802738  0.7918073644090553  1.0000
  H   H7        1.0  0.33728850739289445  0.41882849259366317  0.8653128299402384  1.0000
  H   H8        1.0  0.5119947492873548  0.4337513561656836  0.5479369122530251  1.0000
  C   C15       1.0  0.9024700424804671  0.06236745398102306  0.5259494322715161  1.0000
  C   C16       1.0  0.9029993293516975  0.07171259001501618  0.3891083680716556  1.0000
  C   C17       1.0  0.9043737738643793  0.9596112711932998  0.32020875115158765  1.0000
  C   C18       1.0  0.9031408381581134  0.8365256270233292  0.38939818880936006  1.0000
  C   C19       1.0  0.9026021591838006  0.8250819245500259  0.5261854649065822  1.0000
  C   C20       1.0  0.9025341627516126  0.9386174902721192  0.5936767405726344  1.0000
  N   N3        1.0  0.903760796102319  0.9727217019509955  0.18017052684002333  1.0000
  C   C21       1.0  0.9389874049386973  0.8824793315177549  0.09880993018941786  1.0000
  O   O1        1.0  0.9908073297041092  0.8109031272721107  0.14338418835848277  1.0000
  C   C22       1.0  0.917169498063035  0.875804122295399  0.9614553324385793  1.0000
  C   C23       1.0  0.8477072541357957  0.9239897456954426  0.9183317921499574  1.0000
  C   C24       1.0  0.8275937753503435  0.9165362970527768  0.7887417622766764  1.0000
  C   C25       1.0  0.8762429272435183  0.8606643801665841  0.7010279700699855  1.0000
  C   C26       1.0  0.9450440173566109  0.8116756754952631  0.7428059575646997  1.0000
  C   C27       1.0  0.9654443135577415  0.8187798052212742  0.8722782068427448  1.0000
  H   H9        1.0  0.9007545746732195  0.25198594554514075  0.7841088095760267  1.0000
  H   H10       1.0  0.902920241512934  0.16634018178083188  0.33528886412792613  1.0000
  H   H11       1.0  0.9012823342784883  0.7497096652909255  0.3366788971717809  1.0000
  H   H12       1.0  0.90213618788995  0.9305483012385277  0.6991652930188623  1.0000
  H   H13       1.0  0.9013960305761319  0.49321873474964134  0.5787030764416694  1.0000
  H   H14       1.0  0.8823312790583296  0.05835080837577378  0.13522408340369707  1.0000
  H   H15       1.0  0.8083302820674733  0.9657048302101521  0.9846410703722452  1.0000
  H   H16       1.0  0.7740576764356821  0.9536808785211296  0.7564394860412902  1.0000
  H   H17       1.0  0.8605238066946176  0.8549627813467336  0.6007993836962928  1.0000
  H   H18       1.0  0.9826436931814465  0.7681222621369823  0.6748154045965169  1.0000
  H   H19       1.0  0.019168845644618182  0.7804545197561872  0.9023530265856419  1.0000
  C   C28       1.0  0.9025878469423261  0.4438664887508714  0.14468912197472417  1.0000
  C   C29       1.0  0.9792839005719327  0.47810526621399485  0.13732743686429494  1.0000
  C   C30       1.0  0.018140512192107217  0.49347485522174406  0.016924769000767226  1.0000
  C   C31       1.0  0.9791523879986763  0.47779200235759545  0.9021901427918815  1.0000
  C   C32       1.0  0.9024843890851824  0.4435829106965956  0.9074457885322813  1.0000
  C   C33       1.0  0.8646990406430678  0.4263703245355097  0.029240529728207676  1.0000
  N   N4        1.0  0.09637830017395577  0.5304620671918878  0.012822831543719548  1.0000
  C   C34       1.0  0.14954205383527697  0.49190572329722304  0.9161308739304483  1.0000
  O   O2        1.0  0.13582258577042583  0.39301623381316464  0.8551845172727681  1.0000
  C   C35       1.0  0.22168434541761028  0.5639870126361355  0.8904560409757782  1.0000
  C   C36       1.0  0.23077001436296074  0.6922751691015694  0.9264290289416768  1.0000
  C   C37       1.0  0.29893621179149643  0.7594867165615355  0.9010969783029701  1.0000
  C   C38       1.0  0.35856320056624624  0.6999110555629764  0.8393366321617561  1.0000
  C   C39       1.0  0.35008739733577166  0.5730840779273243  0.8023298434703672  1.0000
  C   C40       1.0  0.2820492140880664  0.5054186219682304  0.827326730861075  1.0000
  H   H20       1.0  0.7577405032912724  0.38048261151400764  0.3657545394703483  1.0000
  H   H21       1.0  0.009386166594343326  0.4920561052644379  0.22535554612990816  1.0000
  H   H22       1.0  0.008253424680968235  0.4944631810412252  0.8087319950284004  1.0000
  H   H23       1.0  0.8055773996887463  0.3999591924358845  0.034051331616686165  1.0000
  H   H24       1.0  0.8728322806339969  0.43213509234861425  0.5818943893596722  1.0000
  H   H25       1.0  0.1168897275449643  0.5781635429749952  0.09080887254526737  1.0000
  H   H26       1.0  0.18513051054986995  0.7416994146973659  0.9723361735777738  1.0000
  H   H27       1.0  0.30541604820856394  0.8581215137267715  0.9289434987851237  1.0000
  H   H28       1.0  0.4112496047034868  0.7521691343875672  0.819791147081625  1.0000
  H   H29       1.0  0.39628280506100677  0.5270905800332089  0.754201014465071  1.0000
  H   H30       1.0  0.2768567532897064  0.4070377450082161  0.7980455214880728  1.0000
  Zn  Zn1       1.0  0.8202161963454059  0.4417245023822738  0.5298882171657378  1.0000
  Zn  Zn2       1.0  0.9848488239608864  0.4457241120236224  0.5222464389794805  1.0000
  C   C41       1.0  0.9025013533065123  0.43846289563111185  0.7632669297773793  1.0000
  C   C42       1.0  0.902565465049522  0.4489874009939303  0.28886777089659255  1.0000
  C   C43       1.0  0.9025740311479565  0.680914512585332  0.5209657478216896  1.0000
  C   C44       1.0  0.9024927307507814  0.20653422237389418  0.531169024217333  1.0000
  O   O3        1.0  0.9650351766902745  0.45221819129524676  0.33435542581329214  1.0000
  O   O4        1.0  0.9649839965672122  0.43826673693653095  0.7119789678775368  1.0000
  O   O5        1.0  0.9650418424372437  0.6340494628831315  0.5163190886393301  1.0000
  O   O6        1.0  0.9649772746570996  0.2564354733101111  0.5300152102849216  1.0000
  O   O7        1.0  0.8400876894681578  0.6310131397323309  0.5221194484612297  1.0000
  O   O8        1.0  0.8400298438743883  0.4352319740880919  0.7177792589353191  1.0000
  O   O9        1.0  0.8400810242514113  0.4491833837733312  0.340154155415483  1.0000
  O   O10       1.0  0.8400231222003451  0.25340065646327625  0.5358140372546232  1.0000
