data_image0
_chemical_formula_structural       NC9NC5H8C7OC6OCH12C7OC3FC3H9Zn2C4O8
_chemical_formula_sum              "N2 C45 H29 O11 F1 Zn2"
_cell_length_a       17.807436237873137
_cell_length_b       10.299359160628079
_cell_length_c       10.29938172300155
_cell_angle_alpha    85.58141560917656
_cell_angle_beta     89.37614531969923
_cell_angle_gamma    88.41300836981586

_space_group_name_H-M_alt    "P 1"
_space_group_IT_number       1

loop_
  _space_group_symop_operation_xyz
  'x, y, z'

loop_
  _atom_site_type_symbol
  _atom_site_label
  _atom_site_symmetry_multiplicity
  _atom_site_fract_x
  _atom_site_fract_y
  _atom_site_fract_z
  _atom_site_occupancy
  N   N1        1.0  0.707972733636905  0.3873872433940684  0.5572597471406227  1.0000
  C   C1        1.0  0.647378888263842  0.35219415547565647  0.5462325029515946  1.0000
  C   C2        1.0  0.5720068044507142  0.30841782976618504  0.5325158085110171  1.0000
  C   C3        1.0  0.553916322640391  0.23697391190285577  0.4275061678016985  1.0000
  C   C4        1.0  0.4807339065794678  0.19435895336043574  0.41410550263254153  1.0000
  C   C5        1.0  0.424593171791427  0.22281036984861902  0.5056819908819441  1.0000
  C   C6        1.0  0.3468191415788274  0.1776365841243377  0.4915226394436969  1.0000
  C   C7        1.0  0.2846574074700917  0.25940064830754483  0.5174692806340675  1.0000
  C   C8        1.0  0.2113326372488683  0.21658265289004497  0.5040822774336906  1.0000
  C   C9        1.0  0.1481213761758667  0.30103819839570134  0.5303930756844983  1.0000
  N   N2        1.0  0.0973125093338503  0.36893461430198893  0.551546230438974  1.0000
  C   C10       1.0  0.199586000754093  0.09174260348429364  0.46472325893359523  1.0000
  C   C11       1.0  0.2608903632285037  0.009964684600865858  0.4387682267334394  1.0000
  C   C12       1.0  0.3340956437835981  0.052388080240542534  0.45195265420177355  1.0000
  C   C13       1.0  0.4433751360977145  0.29474871847909623  0.6109109080045698  1.0000
  C   C14       1.0  0.516610405303351  0.3371732388392128  0.6241559043527096  1.0000
  H   H1        1.0  0.5963179693522334  0.21446929266243475  0.35579124745445756  1.0000
  H   H2        1.0  0.46782272045401413  0.1406539244550622  0.33117993226213516  1.0000
  H   H3        1.0  0.293172639088167  0.35687438548414074  0.5463555187369318  1.0000
  H   H4        1.0  0.1431148566069612  0.05770332754322549  0.45412516325136854  1.0000
  H   H5        1.0  0.2516771766196306  0.9133107363674404  0.4086816538983482  1.0000
  H   H6        1.0  0.3807244213238242  0.9866371920009845  0.43289804886109606  1.0000
  H   H7        1.0  0.4016900294626002  0.31671462735850886  0.6839202767226715  1.0000
  H   H8        1.0  0.5300503969659798  0.39209858993389646  0.7060399623325311  1.0000
  C   C15       1.0  0.9025578102548572  0.996786663354349  0.5543727671396408  1.0000
  C   C16       1.0  0.840433962033968  0.004989665408254185  0.4708882132815071  1.0000
  C   C17       1.0  0.8096391216697797  0.8921166129666791  0.4276798549884524  1.0000
  C   C18       1.0  0.840612868204331  0.7697197404330294  0.4711406918771335  1.0000
  C   C19       1.0  0.9027346122292441  0.7595248507731563  0.554444418369741  1.0000
  C   C20       1.0  0.9334531118841903  0.8736564783395776  0.5953683933052993  1.0000
  C   C21       1.0  0.7435204984733811  0.9029397177224612  0.34071741940662115  1.0000
  O   O1        1.0  0.695777494195948  0.9940782108990086  0.35298446591672294  1.0000
  C   C22       1.0  0.7315616607297994  0.8104419304731936  0.23984631349352092  1.0000
  C   C23       1.0  0.7926776439336446  0.7541796347549234  0.17489485070515132  1.0000
  C   C24       1.0  0.7806186116229659  0.6683391957754591  0.07899086266093769  1.0000
  C   C25       1.0  0.7076419153288859  0.6378744059878692  0.045299386217253046  1.0000
  C   C26       1.0  0.6462732803571611  0.695183105960514  0.10894280933328515  1.0000
  C   C27       1.0  0.6582636087604788  0.7810857027253533  0.20489422666816126  1.0000
  O   O2        1.0  0.6985589894167057  0.5510523103489675  0.9485352382785073  1.0000
  C   C28       1.0  0.6277700153431854  0.5115510520746053  0.9047063698487969  1.0000
  H   H9        1.0  0.019589029106017897  0.18855491692898907  0.7123292200349456  1.0000
  H   H10       1.0  0.8162786380190298  0.09945385326964917  0.4382581960805787  1.0000
  H   H11       1.0  0.8156783822616994  0.6822563054884593  0.4410554109674354  1.0000
  H   H12       1.0  0.981373413713228  0.8665243259703578  0.6596333245344219  1.0000
  H   H13       1.0  0.9263727666950385  0.42811775336404095  0.5868153617528618  1.0000
  H   H14       1.0  0.8497893899952486  0.7775669447794956  0.1971876631535292  1.0000
  H   H15       1.0  0.8283045100798745  0.6256187575387948  0.03011024968514886  1.0000
  H   H16       1.0  0.5891304125414565  0.6740738280946704  0.08500585259509386  1.0000
  H   H17       1.0  0.6101580180557411  0.8237799615382008  0.2527302466637964  1.0000
  H   H18       1.0  0.6371606336478456  0.44269041492342043  0.8280944296600672  1.0000
  H   H19       1.0  0.5947661712522925  0.5974523050263869  0.8626810451053246  1.0000
  H   H20       1.0  0.5962203618087286  0.46149843797955337  0.9867043509591862  1.0000
  C   C29       1.0  0.9027094275042968  0.37805164030156346  0.17303996769277186  1.0000
  C   C30       1.0  0.9264532385014983  0.24646891565853313  0.1815400832195757  1.0000
  C   C31       1.0  0.9392452281299882  0.18051978280841885  0.0686066010189712  1.0000
  C   C32       1.0  0.9263814531843192  0.2467654585916812  0.9462751151529032  1.0000
  C   C33       1.0  0.9025829602064314  0.3782598843954652  0.9357771988058472  1.0000
  C   C34       1.0  0.8910740433592187  0.4432370547792306  0.04974445289432983  1.0000
  C   C35       1.0  0.9635565875700127  0.041196006654165895  0.07748168974824665  1.0000
  O   O3        1.0  0.9404008556631172  0.9690477131868436  0.9936331116570898  1.0000
  C   C36       1.0  0.01414209308624037  0.983724184481465  0.1813792161163006  1.0000
  C   C37       1.0  0.008059520730451242  0.8520486512802301  0.2267287867135792  1.0000
  C   C38       1.0  0.05608622436158783  0.7965641213410118  0.3235752989683962  1.0000
  F   F1        1.0  0.049404184326219625  0.6698107841202149  0.367329793589221  1.0000
  C   C39       1.0  0.11097217570652984  0.8715881497927824  0.37524533622921297  1.0000
  C   C40       1.0  0.11813634459260625  0.0020069461259770716  0.32981471775212823  1.0000
  C   C41       1.0  0.07025871030827391  0.05789619056887063  0.23303703386012908  1.0000
  H   H21       1.0  0.8567982357788714  0.6258032780590872  0.3643829814337909  1.0000
  H   H22       1.0  0.9342245425451351  0.19470897328373993  0.2762266313588908  1.0000
  H   H23       1.0  0.9356812687656705  0.19577407810719394  0.8591079182364378  1.0000
  H   H24       1.0  0.8727689817104475  0.5446772460120615  0.042387446997016465  1.0000
  H   H25       1.0  0.8928351150865764  0.4284642021878049  0.6043229231072083  1.0000
  H   H26       1.0  0.9657242054123072  0.7925374689129303  0.187971116608606  1.0000
  H   H27       1.0  0.1481742615166448  0.8286156180442085  0.4501120786503987  1.0000
  H   H28       1.0  0.1610607441332348  0.0597424322649287  0.3692024971257686  1.0000
  H   H29       1.0  0.07766830227303223  0.1585061948587192  0.1976773982904354  1.0000
  Zn  Zn1       1.0  0.8203277794597434  0.3820587499544901  0.5556184601001766  1.0000
  Zn  Zn2       1.0  0.9849574410901573  0.37425252433881506  0.5531981930887813  1.0000
  C   C42       1.0  0.9026040100609238  0.3730468793234287  0.7916030509201697  1.0000
  C   C43       1.0  0.902683008598449  0.38326594840283534  0.3172137034597404  1.0000
  C   C44       1.0  0.9026981768089474  0.6153499031679415  0.5492557309731183  1.0000
  C   C45       1.0  0.9025887853006873  0.14096136691712458  0.559561093324741  1.0000
  O   O4        1.0  0.9651502394730898  0.38204783007769594  0.3646812469770375  1.0000
  O   O5        1.0  0.9650868829275809  0.3683392731921098  0.7422982068046755  1.0000
  O   O6        1.0  0.9651620813359614  0.5640020695901338  0.5466010438084288  1.0000
  O   O7        1.0  0.9650749849060533  0.18638504560716695  0.5603783134254412  1.0000
  O   O8        1.0  0.8402101794638251  0.5699262313514315  0.5484383405826043  1.0000
  O   O9        1.0  0.8401349814251607  0.37426499525989865  0.7441354344799895  1.0000
  O   O10       1.0  0.8401983382689829  0.3879735064601686  0.3665169132479513  1.0000
  O   O11       1.0  0.8401230836805802  0.19231071272743838  0.562214077063286  1.0000
