data_image0
_chemical_formula_structural       NC12NC2H8C7OC3FC3H9C7OC6H10Zn2C4O8
_chemical_formula_sum              "N2 C44 H27 O10 F1 Zn2"
_cell_length_a       17.80743265337812
_cell_length_b       10.29937835083307
_cell_length_c       10.299382801718286
_cell_angle_alpha    85.56292937340861
_cell_angle_beta     91.51478421497153
_cell_angle_gamma    89.45609770286684

_space_group_name_H-M_alt    "P 1"
_space_group_IT_number       1

loop_
  _space_group_symop_operation_xyz
  'x, y, z'

loop_
  _atom_site_type_symbol
  _atom_site_label
  _atom_site_symmetry_multiplicity
  _atom_site_fract_x
  _atom_site_fract_y
  _atom_site_fract_z
  _atom_site_occupancy
  N   N1        1.0  0.7079785152444191  0.4064246783496057  0.6011950863114122  1.0000
  C   C1        1.0  0.6571778319591686  0.4359692372456043  0.5324943754645497  1.0000
  C   C2        1.0  0.5939767650870198  0.4727205247610935  0.4470393392320029  1.0000
  C   C3        1.0  0.6057386081398395  0.5267149433002019  0.32041600559595196  1.0000
  C   C4        1.0  0.5444441299723326  0.5619631193109083  0.2373570769496196  1.0000
  C   C5        1.0  0.471233685180524  0.5434802036854682  0.28026156329198737  1.0000
  C   C6        1.0  0.45849495564169473  0.4893670824444778  0.4073530430600212  1.0000
  C   C7        1.0  0.5206467537016198  0.4541221567619642  0.49039546000227774  1.0000
  C   C8        1.0  0.38071553225739474  0.4697706374955428  0.4531178910373177  1.0000
  C   C9        1.0  0.3619114666278365  0.4969866019920448  0.5801561976977119  1.0000
  C   C10       1.0  0.2886710768135626  0.47854527039791517  0.6231012411357675  1.0000
  C   C11       1.0  0.23329157475316173  0.4326338813635937  0.5398459576923706  1.0000
  C   C12       1.0  0.157914205259648  0.41364001828055397  0.5841919625331133  1.0000
  N   N2        1.0  0.0973161380734276  0.3983702297739775  0.6198430997196265  1.0000
  C   C13       1.0  0.2514040115067559  0.40524912016277237  0.41335062839057435  1.0000
  C   C14       1.0  0.3245915968562319  0.423705180136541  0.3701497018979525  1.0000
  H   H1        1.0  0.6622137195654251  0.5415315168102324  0.28597802734167366  1.0000
  H   H2        1.0  0.5536689972848197  0.6040397576620349  0.13957521493767522  1.0000
  H   H3        1.0  0.4246125914777538  0.5731020748776177  0.214668719949062  1.0000
  H   H4        1.0  0.5121200127827469  0.4106601284745506  0.588053043656863  1.0000
  H   H5        1.0  0.4035832058567991  0.53418209146575  0.6457234318574325  1.0000
  H   H6        1.0  0.27521391921988553  0.500413769219336  0.7211053492003459  1.0000
  H   H7        1.0  0.20901557251397773  0.36932105462722253  0.34819618907671424  1.0000
  H   H8        1.0  0.33751999363537266  0.40030114339110545  0.27244910486466467  1.0000
  C   C15       1.0  0.9025717272298155  0.021014071484466212  0.610579467847782  1.0000
  C   C16       1.0  0.824192606258916  0.02264033604897464  0.590800549922434  1.0000
  C   C17       1.0  0.784564668832243  0.9061750097743755  0.5822973819856205  1.0000
  C   C18       1.0  0.8243762998839056  0.7873925341954949  0.5908162234975376  1.0000
  C   C19       1.0  0.9027300981121487  0.7837707474831531  0.6104702593490616  1.0000
  C   C20       1.0  0.9413512040013785  0.9011114567421189  0.6205789793754006  1.0000
  C   C21       1.0  0.7018948271377592  0.9078524376664959  0.56004346709985  1.0000
  O   O1        1.0  0.6728905005783486  0.823750177058483  0.4919931125524384  1.0000
  C   C22       1.0  0.6521286625629149  0.004839747593638366  0.6149988732830047  1.0000
  C   C23       1.0  0.5852206157533837  0.04621068930235861  0.5480132161204188  1.0000
  C   C24       1.0  0.5374879899990722  0.13646465952979803  0.599787996011953  1.0000
  F   F1        1.0  0.47340038605892937  0.17646951641197983  0.5339987911319586  1.0000
  C   C25       1.0  0.5557495937784288  0.1854047524631015  0.719267995257368  1.0000
  C   C26       1.0  0.6215788859245575  0.14380399570003477  0.7874165492235423  1.0000
  C   C27       1.0  0.6694667707792354  0.05361849352896653  0.7360539187503092  1.0000
  H   H9        1.0  0.05061390289517553  0.2254167446557791  0.6459148284018812  1.0000
  H   H10       1.0  0.7939669148546264  0.1147754959380749  0.5805396865715615  1.0000
  H   H11       1.0  0.7939644833178228  0.6975520140218937  0.5833072764912102  1.0000
  H   H12       1.0  0.0017756817451453077  0.8990537241517047  0.6358263131559649  1.0000
  H   H13       1.0  0.9329009690196917  0.45500593125624406  0.6169277714158772  1.0000
  H   H14       1.0  0.5702708142409508  0.00950170641712389  0.4551386006174387  1.0000
  H   H15       1.0  0.5187786935378014  0.25516505913352994  0.7593762806573368  1.0000
  H   H16       1.0  0.6353672224252964  0.18102420757806925  0.8804491051644148  1.0000
  H   H17       1.0  0.7195227477188886  0.021030514298075786  0.791603711471212  1.0000
  C   C28       1.0  0.9027258455889811  0.40231761921042786  0.22915867287865432  1.0000
  C   C29       1.0  0.981650336918518  0.4015483684178107  0.23163510726848813  1.0000
  C   C30       1.0  0.02145730321621131  0.39967224816203273  0.11582624807187059  1.0000
  C   C31       1.0  0.9814672751082965  0.4015801934007377  0.9963807662337412  1.0000
  C   C32       1.0  0.902575964737445  0.40246718141287996  0.991891005813418  1.0000
  C   C33       1.0  0.8636628036106542  0.4024860148091187  0.10886775043051711  1.0000
  C   C34       1.0  0.10479159449327624  0.4002440229204507  0.11818884118534845  1.0000
  O   O2        1.0  0.13790491859399512  0.46027035457558063  0.025238709283130323  1.0000
  C   C35       1.0  0.15056066018585446  0.3327112496650273  0.22589738675550497  1.0000
  C   C36       1.0  0.22118321593908563  0.38171210475866935  0.26037366493135683  1.0000
  C   C37       1.0  0.2651208080911398  0.31786668494913783  0.3607421754322089  1.0000
  C   C38       1.0  0.2393556658530256  0.20409144058764772  0.4268895505314745  1.0000
  C   C39       1.0  0.16972899883148584  0.15362296077278503  0.3924381747354746  1.0000
  C   C40       1.0  0.1255773175577839  0.21709408166965982  0.2921615287695365  1.0000
  H   H18       1.0  0.7537839336946519  0.4057810786246385  0.43164952595574335  1.0000
  H   H19       1.0  0.012256224958246076  0.403865804045088  0.3236994205841195  1.0000
  H   H20       1.0  0.012080298079159668  0.40111824287865216  0.906895519837057  1.0000
  H   H21       1.0  0.8028179675402584  0.40307984794869633  0.10615437068924738  1.0000
  H   H22       1.0  0.8722696323310191  0.4039129413923217  0.6626242689412849  1.0000
  H   H23       1.0  0.24205865100772095  0.4699569228222156  0.21042447434006628  1.0000
  H   H24       1.0  0.3192062452330251  0.35663317308253584  0.3871992741775656  1.0000
  H   H25       1.0  0.2734729126508608  0.1547563820230491  0.5044744935671408  1.0000
  H   H26       1.0  0.15007630335904443  0.06489691987659163  0.44307476230180054  1.0000
  H   H27       1.0  0.07239327475650237  0.17502664240735322  0.2655618851624588  1.0000
  Zn  Zn1       1.0  0.8203329441850793  0.4040968725333207  0.60658398753709  1.0000
  Zn  Zn2       1.0  0.9849617023578825  0.4006874438080841  0.6144647929861122  1.0000
  C   C41       1.0  0.9026015678079763  0.39726506485512236  0.8477189581772373  1.0000
  C   C42       1.0  0.9026948767911327  0.407520852961881  0.37333003563502376  1.0000
  C   C43       1.0  0.9026973241232578  0.6395925429610501  0.6053155779807775  1.0000
  C   C44       1.0  0.9025990639619531  0.16519181567142893  0.6157334826038681  1.0000
  O   O3        1.0  0.965160237959739  0.4079675793527866  0.42470598740573395  1.0000
  O   O4        1.0  0.9650856247123648  0.3942296811177721  0.8023239816898331  1.0000
  O   O5        1.0  0.9651621066795848  0.5899122020441807  0.6065814966267233  1.0000
  O   O6        1.0  0.965083699836936  0.21228506886126564  0.6204483724043566  1.0000
  O   O7        1.0  0.8402108905263119  0.5924992486450222  0.6006004054226823  1.0000
  O   O8        1.0  0.8401344088932765  0.39681828806802155  0.7963428210172452  1.0000
  O   O9        1.0  0.8402090224879791  0.4105561407381755  0.41872326535249504  1.0000
  O   O10       1.0  0.8401324843410456  0.2148736209766502  0.614465747719442  1.0000
