data_image0
_chemical_formula_structural       NC12NC2H8C7OC6OCH12C7OC3NC3H11Zn2C4O8
_chemical_formula_sum              "N3 C45 H31 O11 Zn2"
_cell_length_a       19.240039667572717
_cell_length_b       10.299359160628079
_cell_length_c       10.298749378158432
_cell_angle_alpha    85.56206142688012
_cell_angle_beta     90.00886307587598
_cell_angle_gamma    90.02126226386561

_space_group_name_H-M_alt    "P 1"
_space_group_IT_number       1

loop_
  _space_group_symop_operation_xyz
  'x, y, z'

loop_
  _atom_site_type_symbol
  _atom_site_label
  _atom_site_symmetry_multiplicity
  _atom_site_fract_x
  _atom_site_fract_y
  _atom_site_fract_z
  _atom_site_occupancy
  N   N1        1.0  0.6546408760344365  0.42142629453314795  0.5675236232586249  1.0000
  C   C1        1.0  0.5944925072270557  0.42142637852317844  0.5675235413262292  1.0000
  C   C2        1.0  0.5196744700978253  0.4214264958230294  0.5675234040259816  1.0000
  C   C3        1.0  0.4831965113420406  0.356951084373311  0.670935276297796  1.0000
  C   C4        1.0  0.4105257483785907  0.35684019328465477  0.6710218106415025  1.0000
  C   C5        1.0  0.3733422351600321  0.4214265884092958  0.5675231763378563  1.0000
  C   C6        1.0  0.4105344003819434  0.48601317050857795  0.4640247366167216  1.0000
  C   C7        1.0  0.4832050739455727  0.4859020439046762  0.46411139343902974  1.0000
  C   C8        1.0  0.2961371446968773  0.4214265097541845  0.5675230809035243  1.0000
  C   C9        1.0  0.2589303011478247  0.3081595459633373  0.609381637302953  1.0000
  C   C10       1.0  0.18625962643986368  0.30826645633432603  0.6092903190221661  1.0000
  C   C11       1.0  0.1498048577530609  0.4214263805731615  0.5675231418010243  1.0000
  C   C12       1.0  0.07498682059609979  0.42142626680686357  0.5675233904668737  1.0000
  N   N2        1.0  0.0148385037531468  0.42142622596496015  0.5675235988979994  1.0000
  C   C13       1.0  0.1862975999335561  0.534586380645826  0.5257559116952009  1.0000
  C   C14       1.0  0.258968309849932  0.5346934711556073  0.52566443083118  1.0000
  H   H1        1.0  0.510908146901964  0.30703276187292183  0.7516763868677436  1.0000
  H   H2        1.0  0.383429462127565  0.3077198815584732  0.7528786318526217  1.0000
  H   H3        1.0  0.3834441558460051  0.5351335092920788  0.38216786455666707  1.0000
  H   H4        1.0  0.5109232098516475  0.5358202661171332  0.38337055867368397  1.0000
  H   H5        1.0  0.2860084441290864  0.21899943459356663  0.6405395056396002  1.0000
  H   H6        1.0  0.1585299164281571  0.22000546001084298  0.6414813650497837  1.0000
  H   H7        1.0  0.1585974864938029  0.6228473524306528  0.4935648802158348  1.0000
  H   H8        1.0  0.2860766456979031  0.6238536617076194  0.49450651773022347  1.0000
  C   C15       1.0  0.8346612371193659  0.04004798260835374  0.5674921033751679  1.0000
  C   C16       1.0  0.7771673278816807  0.0453352376984153  0.4830885191328018  1.0000
  C   C17       1.0  0.7486671186491304  0.9310174652194908  0.4394244370345184  1.0000
  C   C18       1.0  0.777332903473655  0.8100737054979601  0.4833436454356508  1.0000
  C   C19       1.0  0.8348248230784014  0.8027945243210289  0.5675663556057016  1.0000
  C   C20       1.0  0.8632538631254935  0.9183680277665844  0.608944734050646  1.0000
  C   C21       1.0  0.6874766040774638  0.938736690362744  0.35148403973621045  1.0000
  O   O1        1.0  0.6433099132672213  0.02760851205156367  0.3630514878810105  1.0000
  C   C22       1.0  0.6763888975527974  0.8457063389964677  0.25042859889241087  1.0000
  C   C23       1.0  0.732915137959353  0.7923622948210741  0.18636838420570268  1.0000
  C   C24       1.0  0.7217359152957038  0.705982861474459  0.09027902550087585  1.0000
  C   C25       1.0  0.6542132776940547  0.6720711515529049  0.055513601099825616  1.0000
  C   C26       1.0  0.5974529851119674  0.7264500698988072  0.11826195374185189  1.0000
  C   C27       1.0  0.608568657381522  0.8128883891250441  0.21439773759603886  1.0000
  O   O2        1.0  0.645787205798598  0.5848513890429211  0.958607684285504  1.0000
  C   C28       1.0  0.5802861402195543  0.5420103186635163  0.9137360874968192  1.0000
  H   H9        1.0  0.9429705671432677  0.23730879688145445  0.72717991989694  1.0000
  H   H10       1.0  0.7548122011405999  0.1386657666355191  0.4501011448652916  1.0000
  H   H11       1.0  0.7542575365477471  0.7214388257741574  0.45288979526256656  1.0000
  H   H12       1.0  0.9076027502503322  0.913485031917339  0.6739185636375264  1.0000
  H   H13       1.0  0.8567014271446579  0.472496665160783  0.6002870434485754  1.0000
  H   H14       1.0  0.7857575567405742  0.8184485529180229  0.2095013144554183  1.0000
  H   H15       1.0  0.7658410823103357  0.6655387874333191  0.04209396843377666  1.0000
  H   H16       1.0  0.5445813836100073  0.7026409258938578  0.09348427856870867  1.0000
  H   H17       1.0  0.5640749626652288  0.8532867484784911  0.26153195089638626  1.0000
  H   H18       1.0  0.5889557148679226  0.4736206423550288  0.8372552581751904  1.0000
  H   H19       1.0  0.5497425445196581  0.6263617673589026  0.87122272334924  1.0000
  H   H20       1.0  0.5511173373059864  0.4904348140706172  0.9952782251463592  1.0000
  C   C29       1.0  0.8347109769844732  0.4214492802674148  0.18612815524544635  1.0000
  C   C30       1.0  0.8727003577144604  0.5383167564232654  0.17611983728291314  1.0000
  C   C31       1.0  0.8912128952959167  0.5982139475153998  0.05382033538447639  1.0000
  C   C32       1.0  0.8727031304239184  0.5383656189879216  0.9408758126160817  1.0000
  C   C33       1.0  0.8347750553708131  0.42139324661382505  0.9489302595324389  1.0000
  C   C34       1.0  0.8158600435361442  0.3638579398455575  0.07197870716258459  1.0000
  C   C35       1.0  0.9318928778520239  0.7209847602650012  0.04315214011141655  1.0000
  O   O3        1.0  0.9753249949497117  0.7393279818595786  0.9518070043445195  1.0000
  C   C36       1.0  0.9233029577904863  0.8229379512528767  0.1360517481831791  1.0000
  C   C37       1.0  0.8582859502415473  0.8455124947334949  0.1927582229657323  1.0000
  C   C38       1.0  0.8505324335616322  0.9430167970841725  0.2794679859487532  1.0000
  N   N3        1.0  0.7843656405094792  0.9648689473733503  0.33714227611676595  1.0000
  C   C39       1.0  0.9078998091718684  0.019269676220209142  0.30887307075791837  1.0000
  C   C40       1.0  0.9723695435006026  0.9986458294805638  0.2517074517453224  1.0000
  C   C41       1.0  0.9800830738493493  0.9014532049129165  0.16537452373023132  1.0000
  H   H21       1.0  0.7638506482175108  0.19961357784263645  0.41247926716186134  1.0000
  H   H22       1.0  0.8885823919235459  0.5821635839744468  0.26367025172682856  1.0000
  H   H23       1.0  0.8873707117390318  0.5838886401245591  0.8464739270004586  1.0000
  H   H24       1.0  0.7865803945980477  0.27377181136240014  0.07894152391681719  1.0000
  H   H25       1.0  0.7633616242991322  0.20013654630271893  0.7568648138958394  1.0000
  H   H26       1.0  0.8134290367813568  0.788503948063018  0.16870968589475388  1.0000
  H   H27       1.0  0.7412558097382936  0.9085955943134167  0.3159088036533715  1.0000
  H   H28       1.0  0.7780131192692612  0.037389020094068304  0.4016370565986531  1.0000
  H   H29       1.0  0.9025754527536112  0.09488577960745825  0.37561349434790103  1.0000
  H   H30       1.0  0.016484489452315065  0.05811424961632916  0.2743495842814645  1.0000
  H   H31       1.0  0.03057181552998922  0.8868081625942279  0.1223726282644595  1.0000
  Zn  Zn1       1.0  0.7585861397542606  0.421422806908607  0.5675311049482412  1.0000
  Zn  Zn2       1.0  0.9108932574231745  0.42141911907074436  0.5675267159706892  1.0000
  C   C42       1.0  0.8347602980833939  0.41623005161187154  0.8047438272987457  1.0000
  C   C43       1.0  0.8347207626451676  0.42661351297768935  0.3303141212088836  1.0000
  C   C44       1.0  0.8347898829179814  0.6586196071714343  0.5623766793782894  1.0000
  C   C45       1.0  0.8346911255099957  0.18422239707338806  0.5726813382234894  1.0000
  O   O4        1.0  0.8925238029873286  0.4283396112552442  0.3787025823959089  1.0000
  O   O5        1.0  0.8925548356635956  0.4145001746315895  0.7563516610064478  1.0000
  O   O6        1.0  0.8925779467367817  0.6102328060999556  0.5606384744267368  1.0000
  O   O7        1.0  0.8925006399358497  0.23260698908573785  0.5744156715951481  1.0000
  O   O8        1.0  0.7769787052666409  0.6102349368962865  0.5606421493184488  1.0000
  O   O9        1.0  0.7769555945190946  0.4145038657753317  0.756355266798677  1.0000
  O   O10       1.0  0.7769245617481317  0.42834325725656686  0.378704626651464  1.0000
  O   O11       1.0  0.7769013987000012  0.23261062579087377  0.5744178132258417  1.0000
