data_image0
_chemical_formula_structural       NC11NC3H8C7OC6H10C7OC3OC4H12Zn2C4O8
_chemical_formula_sum              "N2 C45 H30 O11 Zn2"
_cell_length_a       17.807433833752565
_cell_length_b       10.299379429549807
_cell_length_c       10.299374482448636
_cell_angle_alpha    85.52536088050722
_cell_angle_beta     88.50658755346606
_cell_angle_gamma    90.68187924927143

_space_group_name_H-M_alt    "P 1"
_space_group_IT_number       1

loop_
  _space_group_symop_operation_xyz
  'x, y, z'

loop_
  _atom_site_type_symbol
  _atom_site_label
  _atom_site_symmetry_multiplicity
  _atom_site_fract_x
  _atom_site_fract_y
  _atom_site_fract_z
  _atom_site_occupancy
  N   N1        1.0  0.7076477134396274  0.4389050148523117  0.5340606476969056  1.0000
  C   C1        1.0  0.656816923573437  0.40416057861432475  0.6006385059468049  1.0000
  C   C2        1.0  0.5935782968324483  0.36094136457652537  0.6834528659308625  1.0000
  C   C3        1.0  0.6052845464284217  0.29735852554907005  0.8061997003035299  1.0000
  C   C4        1.0  0.5439536907374993  0.255819722172165  0.8867294162439556  1.0000
  C   C5        1.0  0.4707621284519045  0.2775503199690126  0.8451532348833957  1.0000
  C   C6        1.0  0.4580791655866304  0.34128782798356205  0.7219461282700836  1.0000
  C   C7        1.0  0.38031985949480246  0.3643492780494064  0.6775886936469959  1.0000
  C   C8        1.0  0.3615601102581188  0.34750668070406765  0.5480097888847641  1.0000
  C   C9        1.0  0.2883386142542386  0.36919855870957985  0.5063895488523737  1.0000
  C   C10       1.0  0.23293393552508632  0.4080517734206126  0.5935277894072888  1.0000
  C   C11       1.0  0.157575950754599  0.4304024754603455  0.5505459574142835  1.0000
  N   N2        1.0  0.0969935039100435  0.4483707794417071  0.5159916927137724  1.0000
  C   C12       1.0  0.2510022130243913  0.4251050851402902  0.7225754613195019  1.0000
  C   C13       1.0  0.324170901779011  0.4033782148497571  0.7644511533306064  1.0000
  C   C14       1.0  0.520267330285812  0.38282206229382965  0.6414328304831152  1.0000
  H   H1        1.0  0.6617446611796305  0.2799351840847566  0.8395730136911859  1.0000
  H   H2        1.0  0.553135671782936  0.20634227711799902  0.981487630470415  1.0000
  H   H3        1.0  0.42411210414403644  0.24297735812801813  0.9086076281584043  1.0000
  H   H4        1.0  0.4032515791266341  0.31587929921041424  0.4793025493406564  1.0000
  H   H5        1.0  0.2749155461784813  0.35534067127150615  0.4063564732759197  1.0000
  H   H6        1.0  0.208594079823646  0.4555094932525525  0.7907683711045548  1.0000
  H   H7        1.0  0.3370655377950792  0.4187816407767708  0.8643008889335226  1.0000
  H   H8        1.0  0.5117837554068115  0.43366188052816734  0.5469084308695757  1.0000
  C   C15       1.0  0.9023323681382898  0.06224624127780465  0.5251796716568489  1.0000
  C   C16       1.0  0.9478527123482737  0.053438975410071476  0.6348161029120063  1.0000
  C   C17       1.0  0.9701074995944011  0.9317402685857414  0.6909974337122491  1.0000
  C   C18       1.0  0.947761318874022  0.818214743639649  0.6345440536892699  1.0000
  C   C19       1.0  0.9023160309201078  0.8250197389940976  0.5248835134085295  1.0000
  C   C20       1.0  0.8797019542898655  0.9475117590506208  0.4710421201355828  1.0000
  C   C21       1.0  0.018826192846058243  0.922373327848805  0.8059374602165847  1.0000
  O   O1        1.0  0.0664850868250777  0.8327427734164514  0.8160822435447557  1.0000
  C   C22       1.0  0.013474735922875958  0.014585518417183918  0.909373660129918  1.0000
  C   C23       1.0  0.07772257259925586  0.04559603801373169  0.9779567956458723  1.0000
  C   C24       1.0  0.0730514022216322  0.13121972753398503  0.07666879233854962  1.0000
  C   C25       1.0  0.0042276230618707444  0.18583358011556994  0.10862189700988045  1.0000
  C   C26       1.0  0.9398641984077921  0.15451087334749225  0.0422882917244094  1.0000
  C   C27       1.0  0.9442336941859648  0.06895952225674518  0.9435026257855446  1.0000
  H   H9        1.0  0.8173809598607702  0.2862997441361661  0.317084410140716  1.0000
  H   H10       1.0  0.9667428178971476  0.14147671615023416  0.6757776855450748  1.0000
  H   H11       1.0  0.9653402872033002  0.7243308631339738  0.677166731996383  1.0000
  H   H12       1.0  0.844609553138693  0.9534974132060158  0.38652007270007505  1.0000
  H   H13       1.0  0.8853809911759584  0.5002392544844018  0.48210056065328977  1.0000
  H   H14       1.0  0.13162124508861783  0.004466045961690979  0.9544074742939592  1.0000
  H   H15       1.0  0.12284157182941802  0.15518812573913654  0.12845576833049333  1.0000
  H   H16       1.0  0.0007142982136441045  0.25200126916364685  0.18512821505817278  1.0000
  H   H17       1.0  0.8864485789370311  0.19609090069698953  0.06781508021995453  1.0000
  H   H18       1.0  0.8934054280392622  0.04428027764611375  0.8949236659702104  1.0000
  C   C28       1.0  0.9023937907536752  0.4437221729777283  0.143645797069492  1.0000
  C   C29       1.0  0.9808658856664075  0.46029517540169107  0.13762693263339698  1.0000
  C   C30       1.0  0.020350107095703063  0.4701233057921814  0.017307229145926417  1.0000
  C   C31       1.0  0.9806863128091272  0.46022693506903734  0.9023964404765632  1.0000
  C   C32       1.0  0.902254593218533  0.4435437853804778  0.9064173525670935  1.0000
  C   C33       1.0  0.8635408901352695  0.4357284699030888  0.027527995936383  1.0000
  C   C34       1.0  0.10329941910742613  0.4862667996947909  0.010913153594972469  1.0000
  O   O2        1.0  0.1401584353530585  0.4336177238073424  0.923376288331978  1.0000
  C   C35       1.0  0.14443085540061373  0.5621525825178888  0.10374297382324582  1.0000
  C   C36       1.0  0.21772825309035948  0.5272145816537557  0.13851991737547298  1.0000
  C   C37       1.0  0.25785506867264485  0.5984583394386025  0.22483367385849307  1.0000
  O   O3        1.0  0.3305424127451315  0.5583308460066996  0.25676989878277623  1.0000
  C   C38       1.0  0.37761133376227285  0.6213495199361323  0.3429537367680813  1.0000
  C   C39       1.0  0.22426888296337255  0.7070348430050046  0.27626443714428905  1.0000
  C   C40       1.0  0.15184860125659605  0.7433274596653383  0.24093571458977103  1.0000
  C   C41       1.0  0.11215540014516412  0.6718612209746859  0.1548429579075783  1.0000
  H   H19       1.0  0.7544357611189263  0.41046235707871426  0.3624748725887612  1.0000
  H   H20       1.0  0.011463737852208  0.46413123624210173  0.22679700499601219  1.0000
  H   H21       1.0  0.011110801828754235  0.46682253802037543  0.8095885900143811  1.0000
  H   H22       1.0  0.803044638241658  0.42295104439991693  0.031364385561868824  1.0000
  H   H23       1.0  0.8721954938699735  0.4360530283632178  0.5805862059608113  1.0000
  H   H24       1.0  0.2437839461784055  0.4435310017378544  0.09946501919795692  1.0000
  H   H25       1.0  0.4316902618800895  0.5693039491527805  0.3504234642577737  1.0000
  H   H26       1.0  0.3504830285016014  0.6188889344770812  0.4414481301406761  1.0000
  H   H27       1.0  0.38915916173253673  0.7236420049334569  0.30471656936371483  1.0000
  H   H28       1.0  0.2537075380522973  0.764191596053573  0.3430672110649602  1.0000
  H   H29       1.0  0.1264984655499548  0.8275172715102095  0.2799866094652599  1.0000
  H   H30       1.0  0.05660029236672548  0.703239266257081  0.12718428513824298  1.0000
  Zn  Zn1       1.0  0.820004496744838  0.44163315344396037  0.5288538237990323  1.0000
  Zn  Zn2       1.0  0.9846367041400087  0.44563201814703346  0.5212091072172378  1.0000
  C   C42       1.0  0.9022793464345225  0.438403485666903  0.76223931806061  1.0000
  C   C43       1.0  0.9023636521705402  0.44886336827939766  0.28782365631144957  1.0000
  C   C44       1.0  0.902316192345338  0.6808404198997882  0.5197642795339428  1.0000
  C   C45       1.0  0.9023267501030554  0.2064248722698394  0.5302987672942487  1.0000
  O   O4        1.0  0.9648306022266223  0.45210068262213987  0.33330993505191775  1.0000
  O   O5        1.0  0.964764432550613  0.4382002374126619  0.7109505028390768  1.0000
  O   O6        1.0  0.9647933436224374  0.6339711070661376  0.5151502322625434  1.0000
  O   O7        1.0  0.964801634994548  0.25632982091767276  0.5291101108544889  1.0000
  O   O8        1.0  0.8398395097094076  0.6309353493101202  0.5209528227637159  1.0000
  O   O9        1.0  0.839810598613361  0.4351660400701167  0.7167530234860517  1.0000
  O   O10       1.0  0.839876768625237  0.4490664403872864  0.3391108942443273  1.0000
  O   O11       1.0  0.8398478013725212  0.25329556937061026  0.5349111674227955  1.0000
