data_image0
_chemical_formula_structural       NC12NC2H8C7OC3NC3H11C7OC4NC3H9Zn2C4O8
_chemical_formula_sum              "N4 C45 H28 O10 Zn2"
_cell_length_a       19.240039667572717
_cell_length_b       10.298746005989749
_cell_length_c       10.299375074045738
_cell_angle_alpha    85.54279281073397
_cell_angle_beta     89.99323599274587
_cell_angle_gamma    90.00762981599719

_space_group_name_H-M_alt    "P 1"
_space_group_IT_number       1

loop_
  _space_group_symop_operation_xyz
  'x, y, z'

loop_
  _atom_site_type_symbol
  _atom_site_label
  _atom_site_symmetry_multiplicity
  _atom_site_fract_x
  _atom_site_fract_y
  _atom_site_fract_z
  _atom_site_occupancy
  N   N1        1.0  0.6546690026141545  0.42194450205981093  0.5675239719574319  1.0000
  C   C1        1.0  0.59452063380804  0.42194458607964824  0.5675238900249555  1.0000
  C   C2        1.0  0.5197025966839176  0.42194470342798684  0.5675237527254522  1.0000
  C   C3        1.0  0.4832177499401507  0.35743426170503856  0.6709341678683882  1.0000
  C   C4        1.0  0.4105469884647954  0.35732333775065905  0.6710207031305904  1.0000
  C   C5        1.0  0.3733703617675786  0.42194479608830093  0.5675235250423889  1.0000
  C   C6        1.0  0.4105694134586056  0.4865664413539057  0.46402654152238254  1.0000
  C   C7        1.0  0.4832400885224415  0.48645528183286135  0.4641131992674359  1.0000
  C   C8        1.0  0.2961652713283765  0.4219447174568973  0.5675234296145892  1.0000
  C   C9        1.0  0.2589667418742296  0.30865813544898124  0.6093846690456486  1.0000
  C   C10       1.0  0.1862960668837078  0.30876507987175184  0.6092933501752225  1.0000
  C   C11       1.0  0.1498329843921211  0.4219445882495543  0.5675234905146556  1.0000
  C   C12       1.0  0.0750149472133404  0.42194447440159766  0.5675237391754517  1.0000
  N   N2        1.0  0.0148666303451548  0.42194443349464894  0.5675239476002945  1.0000
  C   C13       1.0  0.186317412765896  0.5351241724817748  0.5257535779685427  1.0000
  C   C14       1.0  0.2589881224005076  0.5352312971033273  0.525662096514216  1.0000
  H   H1        1.0  0.5109239537671201  0.3074886148906957  0.751674124897634  1.0000
  H   H2        1.0  0.3834450059308825  0.30817541696310724  0.7528762990000417  1.0000
  H   H3        1.0  0.3834848652095331  0.5357143892157123  0.382170894804887  1.0000
  H   H4        1.0  0.5109636561339715  0.5364008282703168  0.38337351803621456  1.0000
  H   H5        1.0  0.28605169108189715  0.21948311852164304  0.6405447165721267  1.0000
  H   H6        1.0  0.1585728977225982  0.2204889242985757  0.6414865028906129  1.0000
  H   H7        1.0  0.15861075847654688  0.6234003035104017  0.4935604398017801  1.0000
  H   H8        1.0  0.2860896520185242  0.6244063932312693  0.4945020042221351  1.0000
  C   C15       1.0  0.8347379421647116  0.04054240380062346  0.5675067724727307  1.0000
  C   C16       1.0  0.8672584754162598  0.04909618839184726  0.4449977655751496  1.0000
  C   C17       1.0  0.8829716176389901  0.9362982924349037  0.38236225909087995  1.0000
  C   C18       1.0  0.8672589995681609  0.813859607026581  0.4449486265763096  1.0000
  C   C19       1.0  0.8348043529076737  0.8033365783877927  0.5675523288320785  1.0000
  C   C20       1.0  0.8185824703205653  0.9172440677007195  0.6278989649504565  1.0000
  C   C21       1.0  0.9179037139320907  0.9451392946685065  0.2535417450887414  1.0000
  O   O1        1.0  0.9603414973657467  0.8571711119599732  0.22832850833574847  1.0000
  C   C22       1.0  0.9046942953206109  0.05371587651789289  0.1533321763463149  1.0000
  C   C23       1.0  0.8388834122991013  0.11311267784531842  0.1412242710982221  1.0000
  C   C24       1.0  0.8267103413180587  0.21482096099676173  0.04531376679122956  1.0000
  N   N3        1.0  0.7597868185247562  0.27505960627255543  0.03410927281853682  1.0000
  C   C25       1.0  0.8803912258992597  0.2567405294569698  0.9601763083385064  1.0000
  C   C26       1.0  0.9455678067853981  0.19717968474280134  0.9704280707396262  1.0000
  C   C27       1.0  0.9576868352264225  0.09589599381639236  0.06603435542615976  1.0000
  H   H9        1.0  0.7742539248194242  0.23167480292627607  0.7998513147638537  1.0000
  H   H10       1.0  0.8810828047835776  0.14363093138434957  0.39877418954923227  1.0000
  H   H11       1.0  0.8797968367116116  0.7266865463054144  0.39724891189356315  1.0000
  H   H12       1.0  0.7935184366426621  0.9098985667710805  0.7223331190164799  1.0000
  H   H13       1.0  0.7737427827267641  0.5761351906122659  0.7994083267317253  1.0000
  H   H14       1.0  0.7967897665668304  0.07968375297081454  0.20518934985688086  1.0000
  H   H15       1.0  0.7194004215335477  0.24458111947184213  0.09706285088639999  1.0000
  H   H16       1.0  0.7501493242638002  0.35070262580418965  0.9628681532325256  1.0000
  H   H17       1.0  0.8716368965118534  0.3351210027022271  0.8856863210480972  1.0000
  H   H18       1.0  0.9868100216850888  0.22957390836369096  0.9041305929551888  1.0000
  H   H19       1.0  0.008660461234787142  0.05125152119671905  0.07256215059968696  1.0000
  C   C28       1.0  0.8347947906456529  0.42208184820000505  0.18614280531986482  1.0000
  C   C29       1.0  0.8883016386335529  0.5152006598497465  0.17770485566529937  1.0000
  C   C30       1.0  0.9147491530635217  0.5632475292219685  0.056191620796609554  1.0000
  C   C31       1.0  0.8881890879373412  0.5149629040696033  0.9424795252712337  1.0000
  C   C32       1.0  0.8347474916626088  0.4217971397469291  0.9489163443866304  1.0000
  C   C33       1.0  0.8082349804937072  0.37614703143526906  0.07122599650261185  1.0000
  C   C34       1.0  0.9717476632687556  0.6605746248664461  0.04721987721022747  1.0000
  O   O2        1.0  0.016162393683301968  0.6558892036665713  0.9575846539716992  1.0000
  C   C35       1.0  0.978350113014774  0.7632288158953133  0.1398525081072386  1.0000
  C   C36       1.0  0.0444471774495836  0.8097937705180538  0.1716118364458461  1.0000
  C   C37       1.0  0.051190677473209156  0.9078138849064723  0.25783442449428473  1.0000
  C   C38       1.0  0.11906735614186648  0.954169493323112  0.2906248490121315  1.0000
  N   N4        1.0  0.17363255838801672  0.9914285625364267  0.3169808944793211  1.0000
  C   C39       1.0  0.9918436476365652  0.960669443244073  0.31203102239864466  1.0000
  C   C40       1.0  0.9259782938790775  0.9161163092339097  0.279770860950149  1.0000
  C   C41       1.0  0.9190965898844476  0.8183662022719254  0.19382384783546192  1.0000
  H   H20       1.0  0.7345518837589308  0.24489198102619936  0.40950100479515594  1.0000
  H   H21       1.0  0.9100032018842245  0.5494048652190344  0.2658901455292415  1.0000
  H   H22       1.0  0.9088800711393534  0.5512018293922882  0.8487365261849855  1.0000
  H   H23       1.0  0.7669853412463212  0.3043585623144123  0.07692722029338328  1.0000
  H   H24       1.0  0.8146183638177071  0.38520729519298613  0.6239940482143829  1.0000
  H   H25       1.0  0.09064896408404577  0.769070194805598  0.13022873294354587  1.0000
  H   H26       1.0  0.9964866694864463  0.03655386479267486  0.3787147479514259  1.0000
  H   H27       1.0  0.8801228598951314  0.9578186657332899  0.3210052041935647  1.0000
  H   H28       1.0  0.8674698221714112  0.7869700080073929  0.16851866550722594  1.0000
  Zn  Zn1       1.0  0.7586142656857265  0.4219410119743263  0.5675314534974334  1.0000
  Zn  Zn2       1.0  0.9109213844652011  0.42193732522237015  0.5675270648229302  1.0000
  C   C42       1.0  0.83475444842731  0.416676805974713  0.8047354753947165  1.0000
  C   C43       1.0  0.8347828650474141  0.42720316989617557  0.33032317044803783  1.0000
  C   C44       1.0  0.8347885511496161  0.6591541574572695  0.5623683154344339  1.0000
  C   C45       1.0  0.8347487102131663  0.18472425795080638  0.5726903995584636  1.0000
  O   O3        1.0  0.8925786200359038  0.42891486690414404  0.3787097522713416  1.0000
  O   O4        1.0  0.8925562723834597  0.4149613311392011  0.7563451887469561  1.0000
  O   O5        1.0  0.8925830315109279  0.6107648585207666  0.5606319923942915  1.0000
  O   O6        1.0  0.8925518089431778  0.23311134885121687  0.5744228512468363  1.0000
  O   O7        1.0  0.7769837892328058  0.6107669883481543  0.5606356670681933  1.0000
  O   O8        1.0  0.7769570302423351  0.4149650214320755  0.7563487942653813  1.0000
  O   O9        1.0  0.7769793780338431  0.4289185125199986  0.3787117963133446  1.0000
  O   O10       1.0  0.7769525669314309  0.2331149851411074  0.5744249926606755  1.0000
