data_image0
_chemical_formula_structural       NC12NC2H8C7OC6H10C6NCOC6H11Zn2C4O8
_chemical_formula_sum              "N3 C44 H29 O10 Zn2"
_cell_length_a       17.80743265337812
_cell_length_b       10.299379429549807
_cell_length_c       10.299662537453274
_cell_angle_alpha    85.5174171995128
_cell_angle_beta     91.52043180893111
_cell_angle_gamma    89.43379168207073

_space_group_name_H-M_alt    "P 1"
_space_group_IT_number       1

loop_
  _space_group_symop_operation_xyz
  'x, y, z'

loop_
  _atom_site_type_symbol
  _atom_site_label
  _atom_site_symmetry_multiplicity
  _atom_site_fract_x
  _atom_site_fract_y
  _atom_site_fract_z
  _atom_site_occupancy
  N   N1        1.0  0.7075711191701126  0.4072428642669417  0.6008204651712885  1.0000
  C   C1        1.0  0.6567594828266256  0.4368266976240667  0.5321111228370927  1.0000
  C   C2        1.0  0.5935447913679243  0.473626837661576  0.4466453497315892  1.0000
  C   C3        1.0  0.6052865519601759  0.527693632984088  0.32000622083462527  1.0000
  C   C4        1.0  0.5439789395021972  0.5629892808438866  0.23693697315279927  1.0000
  C   C5        1.0  0.47077534235783813  0.5444818370718467  0.2798468578668756  1.0000
  C   C6        1.0  0.4580567509894655  0.4902960733217203  0.4069541712979974  1.0000
  C   C7        1.0  0.5202216815894574  0.45500368514081835  0.49000690615265463  1.0000
  C   C8        1.0  0.3802846045821203  0.4706734677124027  0.4527247482185941  1.0000
  C   C9        1.0  0.3614820427807059  0.49781869139477  0.5797587918258034  1.0000
  C   C10       1.0  0.2882484935582271  0.47935280982707074  0.6227092241464489  1.0000
  C   C11       1.0  0.23287443751537812  0.4334871350274736  0.5394636716614045  1.0000
  C   C12       1.0  0.15750412052876342  0.4144679222261958  0.583815229058336  1.0000
  N   N2        1.0  0.09691172307962281  0.3991777542893724  0.6194708301252707  1.0000
  C   C13       1.0  0.2509854421847421  0.40617280572365644  0.4129726576428365  1.0000
  C   C14       1.0  0.3241661679812828  0.4246535597591945  0.36976633366983513  1.0000
  H   H1        1.0  0.6617561713720845  0.5425298939686212  0.2855639141940487  1.0000
  H   H2        1.0  0.55318821139251  0.605121819209687  0.13914281955054597  1.0000
  H   H3        1.0  0.424143467201702  0.5741412385759572  0.21424542415815662  1.0000
  H   H4        1.0  0.5117108458914926  0.4114857947701167  0.5876771213066618  1.0000
  H   H5        1.0  0.40314925518792355  0.5349782027731982  0.645318105885976  1.0000
  H   H6        1.0  0.2747922961870221  0.5011667555056787  0.7207098278395714  1.0000
  H   H7        1.0  0.20860126481395463  0.37028051555502794  0.34782583325866323  1.0000
  H   H8        1.0  0.3370939747918197  0.40130387030999004  0.2720696263071001  1.0000
  C   C15       1.0  0.9022531937869295  0.0218181150825405  0.6103002600554113  1.0000
  C   C16       1.0  0.9477781723171251  0.010945581118653402  0.7242280664694092  1.0000
  C   C17       1.0  0.9700353462488606  0.888236808308862  0.7825074018980904  1.0000
  C   C18       1.0  0.9476867671037706  0.7757255031623914  0.7239474020108052  1.0000
  C   C19       1.0  0.9022368428651429  0.7845923899866036  0.6100025654581951  1.0000
  C   C20       1.0  0.8796204932487462  0.9081103281870447  0.5540292482771552  1.0000
  C   C21       1.0  0.01875888693003014  0.8766598257308054  0.9020403597504243  1.0000
  O   O1        1.0  0.06641772686459002  0.7848816312180387  0.9166796849759706  1.0000
  C   C22       1.0  0.013412339016998232  0.969098522479214  0.004970326111106593  1.0000
  C   C23       1.0  0.07766267712297426  0.9972061694776779  0.07961163082643463  1.0000
  C   C24       1.0  0.0729961867038742  0.08302639147969093  0.17788162186003054  1.0000
  C   C25       1.0  0.004174670543081627  0.14073510527698385  0.20334350542778168  1.0000
  C   C26       1.0  0.9398088512117071  0.11232016133939982  0.13094079639965694  1.0000
  C   C27       1.0  0.9441736669302022  0.026585873373222713  0.03256868639502997  1.0000
  H   H9        1.0  0.8172929732474981  0.24972637068983827  0.39419635963578536  1.0000
  H   H10       1.0  0.9666699883789408  0.09812690875769947  0.7669705583673738  1.0000
  H   H11       1.0  0.9652675383971442  0.6810440212730932  0.7682273119854397  1.0000
  H   H12       1.0  0.844524519352879  0.9156881325593359  0.4661989073702437  1.0000
  H   H13       1.0  0.8852999854859914  0.4605805313186553  0.5656231120909128  1.0000
  H   H14       1.0  0.13155964649489582  0.953652260514184  0.061145824128225446  1.0000
  H   H15       1.0  0.12278823094583124  0.10474534030878635  0.2343635197500099  1.0000
  H   H16       1.0  0.0006649716873354805  0.2070502953992086  0.27951734432826736  1.0000
  H   H17       1.0  0.8863950222019681  0.1563020753787281  0.1514295973616463  1.0000
  H   H18       1.0  0.8933436880922361  0.004202377399541435  0.9791968544259892  1.0000
  C   C28       1.0  0.9022967277679698  0.40334471210917533  0.22877785717970078  1.0000
  C   C29       1.0  0.978985263496218  0.4341325917666212  0.22862482950179097  1.0000
  C   C30       1.0  0.017838451159504665  0.44775367805972466  0.11187570788493573  1.0000
  C   C31       1.0  0.9788538133699143  0.433825223317327  0.9934753568640469  1.0000
  C   C32       1.0  0.9021933262668324  0.40306576863361987  0.9915249697430881  1.0000
  C   C33       1.0  0.8644117486652694  0.3875532842935139  0.10976851495615447  1.0000
  N   N3        1.0  0.09606816904774251  0.4812208002039251  0.11512586002976022  1.0000
  C   C34       1.0  0.14923883789491077  0.4402670152609982  0.02347536795363947  1.0000
  O   O2        1.0  0.13553877383759816  0.34198683390576035  0.9613059509404001  1.0000
  C   C35       1.0  0.2213662951108737  0.5091057362670359  0.004552628659390878  1.0000
  C   C36       1.0  0.23042688829744784  0.6369957909162016  0.041290611827254464  1.0000
  C   C37       1.0  0.2985792435772898  0.7011434056471504  0.02233915822572441  1.0000
  C   C38       1.0  0.3582171676884378  0.6388774343422245  0.9662448755173956  1.0000
  C   C39       1.0  0.3497661489805275  0.5124212203713507  0.9285295614439253  1.0000
  C   C40       1.0  0.28174189482442635  0.44781389318271003  0.9471582498253532  1.0000
  H   H19       1.0  0.7574633333310753  0.3464782736265133  0.436228165615423  1.0000
  H   H20       1.0  0.009084479054853878  0.44672903965599153  0.3194818818841956  1.0000
  H   H21       1.0  0.00795128112782506  0.4491873334908223  0.902749778528499  1.0000
  H   H22       1.0  0.8052959064280145  0.36380229717864543  0.10902249025078214  1.0000
  H   H23       1.0  0.8725437759953083  0.39295228517791614  0.6631852891632333  1.0000
  H   H24       1.0  0.11657008206634734  0.5280026960607325  0.19501216583183179  1.0000
  H   H25       1.0  0.18477826994194935  0.6884795748895649  0.08285811735950044  1.0000
  H   H26       1.0  0.3050398060300663  0.7994948945255784  0.05072615443748729  1.0000
  H   H27       1.0  0.41089281281737633  0.688767392510407  0.951630802436989  1.0000
  H   H28       1.0  0.3959699971814914  0.4643434456904836  0.8847903417782663  1.0000
  H   H29       1.0  0.2765686442501294  0.34965837209663553  0.9174577948077918  1.0000
  Zn  Zn1       1.0  0.8199264096362927  0.4049119775143495  0.6062100460037738  1.0000
  Zn  Zn2       1.0  0.9845564289103177  0.40149804306426895  0.6140918466073852  1.0000
  C   C41       1.0  0.9022112870499235  0.39794454851431293  0.8473513774710244  1.0000
  C   C42       1.0  0.9022733491989559  0.40846707345694244  0.37295072803761675  1.0000
  C   C43       1.0  0.9022367642768412  0.6404137805386425  0.6048834230051519  1.0000
  C   C44       1.0  0.90224781581939  0.16599628217469165  0.6154187496624273  1.0000
  O   O3        1.0  0.9647417375970609  0.4088849483004353  0.42432756499698443  1.0000
  O   O4        1.0  0.9646932740731596  0.3949345967708604  0.8019562713291348  1.0000
  O   O5        1.0  0.9647130048634711  0.5907315850435504  0.6061616417478328  1.0000
  O   O6        1.0  0.9647219506426804  0.21308797051908712  0.6201220945092825  1.0000
  O   O7        1.0  0.8397608317237852  0.5933220512259563  0.6001797954053731  1.0000
  O   O8        1.0  0.839741100905977  0.39752662337761224  0.7959743551312335  1.0000
  O   O9        1.0  0.8397895646925333  0.4114769302184256  0.41834408739943485  1.0000
  O   O10       1.0  0.8397697777220771  0.21567994311216077  0.6141387142842338  1.0000
