data_image0
_chemical_formula_structural       NC12NC2H8C7OC6OCH12C7OC4NC3H9Zn2C4O8
_chemical_formula_sum              "N3 C46 H29 O11 Zn2"
_cell_length_a       19.240039667572717
_cell_length_b       10.299359160628079
_cell_length_c       10.299375074045738
_cell_angle_alpha    85.54493941547133
_cell_angle_beta     89.99323599274587
_cell_angle_gamma    90.02126226386561

_space_group_name_H-M_alt    "P 1"
_space_group_IT_number       1

loop_
  _space_group_symop_operation_xyz
  'x, y, z'

loop_
  _atom_site_type_symbol
  _atom_site_label
  _atom_site_symmetry_multiplicity
  _atom_site_fract_x
  _atom_site_fract_y
  _atom_site_fract_z
  _atom_site_occupancy
  N   N1        1.0  0.6548500958392159  0.4218557865399537  0.5675773569050888  1.0000
  C   C1        1.0  0.5947017270438018  0.4218558705545492  0.5675772749757666  1.0000
  C   C2        1.0  0.5198836899346246  0.42185598789556655  0.5675771376806691  1.0000
  C   C3        1.0  0.4833906273962715  0.3573495709973318  0.6709851308679309  1.0000
  C   C4        1.0  0.41071985179408027  0.3572386539635293  0.671071661965646  1.0000
  C   C5        1.0  0.37355145503008635  0.42185608055009927  0.5675769100010848  1.0000
  C   C6        1.0  0.4107587366781426  0.4864736940529697  0.4640823526117359  1.0000
  C   C7        1.0  0.48342939758514186  0.48636254146719926  0.46416900618345824  1.0000
  C   C8        1.0  0.2963463645808701  0.42185600192360173  0.567576814570333  1.0000
  C   C9        1.0  0.2591334073959207  0.30857648789759384  0.6094338008127187  1.0000
  C   C10       1.0  0.1864627460254173  0.30868342564807216  0.6093424859573735  1.0000
  C   C11       1.0  0.15001407762815938  0.4218558727243198  0.5675768754655479  1.0000
  C   C12       1.0  0.0751960404348795  0.42185575888346594  0.5675771241220702  1.0000
  N   N2        1.0  0.0150477235614842  0.4218557179790694  0.5675773325453772  1.0000
  C   C13       1.0  0.18651292010592357  0.5350283956502531  0.5258112120910252  1.0000
  C   C14       1.0  0.2591836433835031  0.5351355135882705  0.5257197346585445  1.0000
  H   H1        1.0  0.5110904703433007  0.30740704030602695  0.7517232127566655  1.0000
  H   H2        1.0  0.38361160997545724  0.308093799528663  0.7529254126441112  1.0000
  H   H3        1.0  0.3836804477172283  0.5356185755604015  0.3822285510862433  1.0000
  H   H4        1.0  0.5111593260638284  0.5363049717878794  0.38343120008898013  1.0000
  H   H5        1.0  0.2862069996263034  0.2194070346247965  0.6405905003860208  1.0000
  H   H6        1.0  0.158728334362448  0.22041277764922174  0.6415323244660995  1.0000
  H   H7        1.0  0.1588175083153083  0.6232990191060856  0.4936213881300051  1.0000
  H   H8        1.0  0.2862965299888913  0.6243050460567305  0.49456299032261253  1.0000
  C   C15       1.0  0.83487046152777  0.040477484065603475  0.5675458382039751  1.0000
  C   C16       1.0  0.77738887982421  0.045790045447179795  0.48314542002593597  1.0000
  C   C17       1.0  0.7488950479329417  0.9314853645448778  0.43948297581180085  1.0000
  C   C18       1.0  0.7775544181538071  0.8105284367535205  0.48340053675873773  1.0000
  C   C19       1.0  0.8350340366419238  0.803224003515615  0.5676200876492319  1.0000
  C   C20       1.0  0.8634570331853315  0.9187851006952905  0.6089969139490976  1.0000
  C   C21       1.0  0.6877173774633165  0.9392309564040695  0.35154587724727704  1.0000
  O   O1        1.0  0.6435489971737347  0.028099309884549006  0.36311289148532677  1.0000
  C   C22       1.0  0.6766444305535021  0.8462309039696235  0.2504942270958894  1.0000
  C   C23       1.0  0.7331800272509037  0.7929060666381322  0.18643641537301647  1.0000
  C   C24       1.0  0.7220148388828255  0.706555443268542  0.09035066107780776  1.0000
  C   C25       1.0  0.6544972789323156  0.6726541568849507  0.055586540763200576  1.0000
  C   C26       1.0  0.5977278216629056  0.727014261715784  0.11833253965067225  1.0000
  C   C27       1.0  0.6088294528562812  0.8134237570455825  0.21446471735378658  1.0000
  O   O2        1.0  0.6460853605945212  0.5854634491763998  0.9586842589884226  1.0000
  C   C28       1.0  0.5805908487198682  0.5426358324165216  0.9138143453789911  1.0000
  H   H9        1.0  0.9431564684069829  0.237690419963958  0.7272276646732636  1.0000
  H   H10       1.0  0.7550385710418172  0.13913046481864155  0.45015928314840004  1.0000
  H   H11       1.0  0.754483499153667  0.7219026878506083  0.45294782894056085  1.0000
  H   H12       1.0  0.9077964305816395  0.9138826240776974  0.673968306301518  1.0000
  H   H13       1.0  0.856905861700279  0.4729163338802272  0.6003395481058107  1.0000
  H   H14       1.0  0.7860190673605953  0.8189853889078678  0.20956847788298005  1.0000
  H   H15       1.0  0.7661270435480576  0.6661258163046413  0.042167411481228045  1.0000
  H   H16       1.0  0.5448598390550836  0.7032125466734387  0.09355579391333602  1.0000
  H   H17       1.0  0.5643288739699833  0.8538079843908595  0.2615971626018334  1.0000
  H   H18       1.0  0.5892715937473368  0.47426908696078723  0.8373363849310902  1.0000
  H   H19       1.0  0.5500534622935713  0.6270000276746996  0.8713025759509598  1.0000
  H   H20       1.0  0.5514101361996938  0.4910358794648871  0.9953534242999771  1.0000
  C   C29       1.0  0.8349759013625753  0.42199312411108325  0.18619619542399324  1.0000
  C   C30       1.0  0.8884946085938503  0.5151061260518155  0.17776174178694348  1.0000
  C   C31       1.0  0.9149482420829778  0.563149997766262  0.056250310771781775  1.0000
  C   C32       1.0  0.8883820276180031  0.5148683851053231  0.9425364024666649  1.0000
  C   C33       1.0  0.8349285661201893  0.4217084334210486  0.9489697238017718  1.0000
  C   C34       1.0  0.8084102411341334  0.3760611732325636  0.07127766204731811  1.0000
  C   C35       1.0  0.9719591474819838  0.660471021145701  0.047282221197141094  1.0000
  O   O3        1.0  0.016373281179826726  0.6557858922705804  0.9576468220509278  1.0000
  C   C36       1.0  0.978574670859563  0.7631188075505415  0.13991870610435275  1.0000
  C   C37       1.0  0.04467766562273279  0.809680856972586  0.17167978266004003  1.0000
  C   C38       1.0  0.05143364910025516  0.9076948558583311  0.2579060507386546  1.0000
  C   C39       1.0  0.11931623143576875  0.9540475721354442  0.29069821561396614  1.0000
  N   N3        1.0  0.1738861788495374  0.9913043167448874  0.31705565992158635  1.0000
  C   C40       1.0  0.9920933507383687  0.96054711652269  0.3121046330321451  1.0000
  C   C41       1.0  0.9262223228700328  0.915996762195165  0.2798427988976042  1.0000
  C   C42       1.0  0.9193281698085832  0.8182527538900151  0.19389211588979793  1.0000
  H   H21       1.0  0.7347104282755209  0.2448143118632311  0.4095477425497933  1.0000
  H   H22       1.0  0.9102005279567698  0.5493081974110519  0.26594831580066103  1.0000
  H   H23       1.0  0.909077626066145  0.5511050494712024  0.8487947639209499  1.0000
  H   H24       1.0  0.7671514591913913  0.3042771830146096  0.07697619063890193  1.0000
  H   H25       1.0  0.8147947783374735  0.3851208717178609  0.6240460539142116  1.0000
  H   H26       1.0  0.09087426586373759  0.7689598220155431  0.13029515024718452  1.0000
  H   H27       1.0  0.9967460369278989  0.03642680362075801  0.37879120756100626  1.0000
  H   H28       1.0  0.8803721999331916  0.9576965168727221  0.3210787077985513  1.0000
  H   H29       1.0  0.8676974036004821  0.7868585184429269  0.16858575483469496  1.0000
  Zn  Zn1       1.0  0.7587953584663046  0.42185229667221646  0.5675848383140594  1.0000
  Zn  Zn2       1.0  0.911102476776249  0.4218486101502783  0.5675804495011423  1.0000
  C   C43       1.0  0.8349348707794425  0.41658841910790523  0.80478866257398  1.0000
  C   C44       1.0  0.8349646279956022  0.42711412628654455  0.3303767528251349  1.0000
  C   C45       1.0  0.834999854457736  0.6590506423598879  0.5624306060918551  1.0000
  C   C46       1.0  0.8348995920066331  0.1846503426691064  0.5727348783988169  1.0000
  O   O4        1.0  0.8927606009790495  0.4288257165012519  0.37876339891174493  1.0000
  O   O5        1.0  0.8927364762595057  0.41487305130135366  0.75639831152108  1.0000
  O   O6        1.0  0.8927881721494146  0.6106643624454384  0.5606924663421391  1.0000
  O   O7        1.0  0.8927088531250709  0.23303441468522346  0.5744691467138658  1.0000
  O   O8        1.0  0.7771889301425388  0.6106664921399454  0.5606961410960021  1.0000
  O   O9        1.0  0.777137234588362  0.4148767413639898  0.7564019171780518  1.0000
  O   O10       1.0  0.7771613594412802  0.42882936188965526  0.3787654430906173  1.0000
  O   O11       1.0  0.7771096115764276  0.2330380507482448  0.5744712882642247  1.0000
