data_image0
_chemical_formula_structural       NC10NC5H10C6NCOC6H11C6NCOC6H11Zn2C4O8
_chemical_formula_sum              "N4 C45 H32 O10 Zn2"
_cell_length_a       19.4436361288709
_cell_length_b       10.29965916528486
_cell_length_c       10.299662537453274
_cell_angle_alpha    85.55779495060091
_cell_angle_beta     89.69093770751046
_cell_angle_gamma    89.4352492152202

_space_group_name_H-M_alt    "P 1"
_space_group_IT_number       1

loop_
  _space_group_symop_operation_xyz
  'x, y, z'

loop_
  _atom_site_type_symbol
  _atom_site_label
  _atom_site_symmetry_multiplicity
  _atom_site_fract_x
  _atom_site_fract_y
  _atom_site_fract_z
  _atom_site_occupancy
  N   N1        1.0  0.6480452899663189  0.40981149781308956  0.5625487003536989  1.0000
  C   C1        1.0  0.5892099637397876  0.4197051485122676  0.576936396251287  1.0000
  C   C2        1.0  0.5158814360351552  0.4320438275555736  0.5949333552530549  1.0000
  C   C3        1.0  0.4736988365474081  0.4001002423409665  0.50024655997847  1.0000
  C   C4        1.0  0.3977954284453805  0.41053527603064643  0.5055783510436827  1.0000
  C   C5        1.0  0.3580451888927211  0.38572885208723284  0.6126445452471223  1.0000
  C   C6        1.0  0.2819261117673493  0.38965252758412894  0.599686238820587  1.0000
  C   C7        1.0  0.241365813881547  0.4472602582788472  0.6934788126310132  1.0000
  C   C8        1.0  0.16970368239193173  0.4509037397339015  0.6829359401971316  1.0000
  C   C9        1.0  0.1376070128393988  0.3965433321567342  0.578886890158427  1.0000
  C   C10       1.0  0.0638156565210267  0.4002481410087928  0.5681887535146135  1.0000
  N   N2        1.0  0.0044924110320468  0.4032266128392219  0.559588160944507  1.0000
  C   C11       1.0  0.1774422849986587  0.3382283196714533  0.48547731562064533  1.0000
  C   C12       1.0  0.2491208540954023  0.33453075519726383  0.4957683865202005  1.0000
  C   C13       1.0  0.3861629265226435  0.34519670981193395  0.7437280322394193  1.0000
  C   C14       1.0  0.4448299735333381  0.3882911520885455  0.7909864192967047  1.0000
  C   C15       1.0  0.4890574857453925  0.48618761223904516  0.7166511536691773  1.0000
  H   H1        1.0  0.49579946928516533  0.37103400985369306  0.4099277593543291  1.0000
  H   H2        1.0  0.3731067638711947  0.43308084859223994  0.41242576216430393  1.0000
  H   H3        1.0  0.2652374690241603  0.4905050941065745  0.7743438089537809  1.0000
  H   H4        1.0  0.1393609188695093  0.4961766310833984  0.7558739991717163  1.0000
  H   H5        1.0  0.1530987548556946  0.2951789503070923  0.40494687694448084  1.0000
  H   H6        1.0  0.2787976085108603  0.28701415585289025  0.423525901467134  1.0000
  H   H7        1.0  0.3551832162660122  0.2809459817666027  0.8079541631777911  1.0000
  H   H8        1.0  0.4599680328343086  0.3541707129146072  0.8889112036377094  1.0000
  H   H9        1.0  0.45896417277516777  0.5769131505935963  0.691430002000299  1.0000
  H   H10       1.0  0.5323422548277846  0.5117379094854944  0.7797463148704742  1.0000
  C   C16       1.0  0.826211655574981  0.025159471920507714  0.5609534509370597  1.0000
  C   C17       1.0  0.8266962179001208  0.0344827859598833  0.424132916136124  1.0000
  C   C18       1.0  0.8279545223566295  0.922324800097308  0.35528660966306513  1.0000
  C   C19       1.0  0.8268257692644033  0.7992899886946107  0.42442822556228177  1.0000
  C   C20       1.0  0.8263326084654395  0.787868495443408  0.5611946079699801  1.0000
  C   C21       1.0  0.8262703577067808  0.9014068645937702  0.628683246264963  1.0000
  N   N3        1.0  0.8273933409901759  0.9354605033455025  0.21522460984204916  1.0000
  C   C22       1.0  0.8596433143266884  0.8437657733125637  0.13523034427745206  1.0000
  O   O1        1.0  0.9070844744947599  0.7700530828232883  0.18181453688018534  1.0000
  C   C23       1.0  0.8396690125633013  0.8379900956529356  0.9970294974728278  1.0000
  C   C24       1.0  0.7760763027185094  0.8890395813467618  0.9512117318154649  1.0000
  C   C25       1.0  0.7576624054981366  0.8824153923167102  0.8208415623766654  1.0000
  C   C26       1.0  0.8022007219363232  0.8245377171386132  0.7350147201414678  1.0000
  C   C27       1.0  0.8651881452212705  0.7727124089168455  0.7794612888955759  1.0000
  C   C28       1.0  0.8838646238911106  0.7789754538208116  0.9097248024986335  1.0000
  H   H11       1.0  0.8246411441669611  0.21484869059177947  0.8190462905568623  1.0000
  H   H12       1.0  0.8266238129546659  0.12911363844211876  0.37031034462000534  1.0000
  H   H13       1.0  0.825124308279552  0.7125506513106701  0.37163684831362387  1.0000
  H   H14       1.0  0.825906011574661  0.893354083685453  0.7341563624985405  1.0000
  H   H15       1.0  0.8252283972818313  0.4560550331791015  0.6136654375108646  1.0000
  H   H16       1.0  0.8077746102604301  0.021973128389410457  0.16944698179095252  1.0000
  H   H17       1.0  0.7400266703177721  0.9323781409923335  0.015993699212583312  1.0000
  H   H18       1.0  0.7086500872656831  0.921767216257657  0.786462786626084  1.0000
  H   H19       1.0  0.7878098612965682  0.8194842027180889  0.6341764377521728  1.0000
  H   H20       1.0  0.899610662257887  0.7276087966625145  0.7129291109342506  1.0000
  H   H21       1.0  0.9330494527619819  0.7384351569625442  0.9418834304960373  1.0000
  C   C29       1.0  0.8263195056031095  0.4066536497243656  0.17969770991059053  1.0000
  C   C30       1.0  0.8965347708890553  0.4377303217953601  0.1753108272494981  1.0000
  C   C31       1.0  0.9321080131082653  0.4514978896389248  0.056415287040527895  1.0000
  C   C32       1.0  0.8964143710799044  0.4374224800773543  0.940168432211566  1.0000
  C   C33       1.0  0.8262247898968704  0.4063743371392041  0.9424503636582009  1.0000
  C   C34       1.0  0.7916322895108951  0.3907196049796988  0.06277952818133659  1.0000
  N   N4        1.0  0.0037347367603211  0.485259431975003  0.05534795113473012  1.0000
  C   C35       1.0  0.05240617277649373  0.4445111970486284  0.9607180509171553  1.0000
  O   O2        1.0  0.0398459947208174  0.34618734819263297  0.8992395585722854  1.0000
  C   C36       1.0  0.11845246723452019  0.5136181282763037  0.9378413940816408  1.0000
  C   C37       1.0  0.1267704004932373  0.6415316912469806  0.974166787014334  1.0000
  C   C38       1.0  0.18917657929213183  0.7059328111784238  0.9514786921135805  1.0000
  C   C39       1.0  0.24376510943007568  0.6438987861076835  0.8920310922462531  1.0000
  C   C40       1.0  0.23600550845747081  0.5174212577830373  0.8546955533908487  1.0000
  C   C41       1.0  0.17371652668817616  0.45256095144946706  0.8770534503173124  1.0000
  H   H22       1.0  0.6937117092549381  0.3492416907899294  0.3951449474310871  1.0000
  H   H23       1.0  0.9240934064960347  0.45044007302967537  0.26450651020966554  1.0000
  H   H24       1.0  0.9230563808580241  0.452893850678888  0.847839023556602  1.0000
  H   H25       1.0  0.737506405488283  0.36674600194194684  0.06529718467319379  1.0000
  H   H26       1.0  0.799078273711794  0.39614904703856  0.6157488510094207  1.0000
  H   H27       1.0  0.022512956057028743  0.5321152411035606  0.13412956689527866  1.0000
  H   H28       1.0  0.08498741797850173  0.6928376102049874  0.018303716609310072  1.0000
  H   H29       1.0  0.19510887191348592  0.8043004508472196  0.9795765453870913  1.0000
  H   H30       1.0  0.2919995317815127  0.6939846545677253  0.8745291496517775  1.0000
  H   H31       1.0  0.27829742120808576  0.46952316713679654  0.8083585012182017  1.0000
  H   H32       1.0  0.1689628269188963  0.3543941547127747  0.8475708414671521  1.0000
  Zn  Zn1       1.0  0.7509082292076404  0.40790776821624775  0.5617018638190308  1.0000
  Zn  Zn2       1.0  0.9016294602969143  0.4051197311030783  0.5604456755124887  1.0000
  C   C42       1.0  0.826240320647733  0.4012536226549992  0.7982721628929186  1.0000
  C   C43       1.0  0.8262990149720214  0.4117754847515911  0.3238754907081367  1.0000
  C   C44       1.0  0.8263068572382863  0.643702243170897  0.5559737998856689  1.0000
  C   C45       1.0  0.8262324266947925  0.16932530489755848  0.5661739228906331  1.0000
  O   O3        1.0  0.8834900589385746  0.41243070821894845  0.3717861523168853  1.0000
  O   O4        1.0  0.8834432035171013  0.39848136396806  0.7494077092626232  1.0000
  O   O5        1.0  0.883496161432375  0.5942617049844214  0.5537500736866092  1.0000
  O   O6        1.0  0.8834370496059224  0.21665037747960492  0.5674436909479277  1.0000
  O   O7        1.0  0.7691005884648743  0.5963771227925583  0.5547038488054363  1.0000
  O   O8        1.0  0.7690476308025179  0.4005983420671684  0.7503614156280485  1.0000
  O   O9        1.0  0.769094486456493  0.4145476416341096  0.3727382972365696  1.0000
  O   O10       1.0  0.7690414771074612  0.21876730157058466  0.5683959332344286  1.0000
