data_image0
_chemical_formula_structural       NC10NC5H10C7OC6H10C7OC4NC3H9Zn2C4O8
_chemical_formula_sum              "N3 C46 H29 O10 Zn2"
_cell_length_a       19.4436361288709
_cell_length_b       10.299379429549807
_cell_length_c       10.299375074045738
_cell_angle_alpha    85.51714373298503
_cell_angle_beta     89.69773134605877
_cell_angle_gamma    89.41578640036583

_space_group_name_H-M_alt    "P 1"
_space_group_IT_number       1

loop_
  _space_group_symop_operation_xyz
  'x, y, z'

loop_
  _atom_site_type_symbol
  _atom_site_label
  _atom_site_symmetry_multiplicity
  _atom_site_fract_x
  _atom_site_fract_y
  _atom_site_fract_z
  _atom_site_occupancy
  N   N1        1.0  0.6477036248881407  0.40994048032778796  0.5615144165243027  1.0000
  C   C1        1.0  0.588867439013558  0.4198348904394913  0.5758955331420166  1.0000
  C   C2        1.0  0.5155378425844787  0.43217451625045644  0.5938842884070292  1.0000
  C   C3        1.0  0.4733549875979967  0.40022876635160265  0.49921739747268945  1.0000
  C   C4        1.0  0.3974500542487393  0.41066465962495324  0.5045419761553256  1.0000
  C   C5        1.0  0.35771096522813367  0.3858554792041311  0.6116286378273084  1.0000
  C   C6        1.0  0.2815903742943268  0.38977956701773175  0.5986672043477983  1.0000
  C   C7        1.0  0.24102570044283902  0.44739165988839646  0.6924217469198595  1.0000
  C   C8        1.0  0.1693622568851783  0.4510355153428678  0.6818760120787086  1.0000
  C   C9        1.0  0.1372687398528255  0.39667108404484397  0.5778624182451739  1.0000
  C   C10       1.0  0.0634760507762839  0.4003762730593434  0.5671613716295465  1.0000
  N   N2        1.0  0.0041517338289807  0.40335505051953846  0.5585584395989605  1.0000
  C   C11       1.0  0.1771085381364386  0.33835164668864115  0.48449138444944606  1.0000
  C   C12       1.0  0.24878841311934793  0.33465370509486925  0.49478534891768033  1.0000
  C   C13       1.0  0.3858441661657363  0.3453190941781068  0.7427443506716331  1.0000
  C   C14       1.0  0.4445065002986436  0.3884169360514751  0.7899736523614889  1.0000
  C   C15       1.0  0.48871188871888843  0.4863222009346675  0.7155672736012775  1.0000
  H   H1        1.0  0.4954551263677064  0.3711605889450589  0.40891659284356807  1.0000
  H   H2        1.0  0.3727515165434572  0.43321271269272743  0.41137090049801506  1.0000
  H   H3        1.0  0.2648947277770772  0.49063970803301893  0.7732584841538857  1.0000
  H   H4        1.0  0.1390160058646615  0.49631183944526724  0.7547841615653521  1.0000
  H   H5        1.0  0.1527676219791199  0.2952990797113597  0.4039890762723648  1.0000
  H   H6        1.0  0.2784690987402211  0.28713347720359206  0.4225743752393998  1.0000
  H   H7        1.0  0.3548799462442064  0.281062495533265  0.8070175824163133  1.0000
  H   H8        1.0  0.4596567961284089  0.35429299925716773  0.8879252201569088  1.0000
  H   H9        1.0  0.4586008167430354  0.5770556390271313  0.6902814293645112  1.0000
  H   H10       1.0  0.5319960678048932  0.5118743048938108  0.7786461634831652  1.0000
  C   C16       1.0  0.8259384640129087  0.025255607927954227  0.560190435424881  1.0000
  C   C17       1.0  0.8676243969374069  0.014555423500991704  0.6715949571156155  1.0000
  C   C18       1.0  0.888004822597069  0.8919308970611514  0.7286407295596808  1.0000
  C   C19       1.0  0.8675406965107308  0.7793349998098985  0.6713193574766014  1.0000
  C   C20       1.0  0.8259234758010081  0.788029822459403  0.5598936399762475  1.0000
  C   C21       1.0  0.8052143645417064  0.9114621354292521  0.5051738825011125  1.0000
  C   C22       1.0  0.9326194374757054  0.8805383875001059  0.8454730514039348  1.0000
  O   O1        1.0  0.9762527118401713  0.7889412440061193  0.8574679169542618  1.0000
  C   C23       1.0  0.927731064098746  0.9729561505403822  0.948702584376202  1.0000
  C   C24       1.0  0.9865578646121735  0.0013075509877287228  0.019780335476258126  1.0000
  C   C25       1.0  0.9822918008274745  0.08710945174383489  0.1183120234984264  1.0000
  C   C26       1.0  0.919286311572053  0.1445564421859038  0.14759391909231157  1.0000
  C   C27       1.0  0.8603539270095615  0.11589729255617964  0.07876123450936423  1.0000
  C   C28       1.0  0.8643437968434219  0.0301801798611252  0.9801441663642345  1.0000
  H   H11       1.0  0.7481425781540976  0.2528422399007524  0.34879547563583224  1.0000
  H   H12       1.0  0.8849228126400183  0.10180829922791834  0.7132902182390592  1.0000
  H   H13       1.0  0.883638928457531  0.6847200739311834  0.714624836818174  1.0000
  H   H14       1.0  0.7730779755703842  0.9189070726449894  0.4192887843110138  1.0000
  H   H15       1.0  0.8104147500618222  0.46395385571404923  0.5164528799575769  1.0000
  H   H16       1.0  0.03590015595971163  0.9579585996040175  0.9983229606254187  1.0000
  H   H17       1.0  0.02788068389973075  0.10901731014598126  0.17203223866793393  1.0000
  H   H18       1.0  0.9160779185759151  0.21085783929183188  0.22396464487908407  1.0000
  H   H19       1.0  0.811454084749939  0.15967607325304067  0.102214847483859  1.0000
  H   H20       1.0  0.817804865139073  0.007603810888988205  0.9295917044179358  1.0000
  C   C29       1.0  0.8259543446610421  0.4067846423669439  0.1786550319068454  1.0000
  C   C30       1.0  0.8788943487040904  0.4989229188569657  0.16973626488834004  1.0000
  C   C31       1.0  0.9050614681760986  0.5464850769614522  0.0479844651663377  1.0000
  C   C32       1.0  0.878782994786089  0.49868722664358955  0.9345119646525455  1.0000
  C   C33       1.0  0.8259075681747853  0.4065008056581143  0.941429086700047  1.0000
  C   C34       1.0  0.7996758749247714  0.36133653806374744  0.06397676304716837  1.0000
  C   C35       1.0  0.9614563419753391  0.6427676971750829  0.03850136502429624  1.0000
  O   O2        1.0  0.005409224618148967  0.637270371094599  0.9485037631670759  1.0000
  C   C36       1.0  0.9679791989777187  0.7452986565903887  0.1310338147093879  1.0000
  C   C37       1.0  0.033383285728493695  0.7906540366177379  0.16222986830793862  1.0000
  C   C38       1.0  0.040046215115591144  0.8885484544296516  0.24835319420562274  1.0000
  C   C39       1.0  0.10721141302050508  0.9336619572888625  0.2805658338412924  1.0000
  N   N3        1.0  0.1612046654868371  0.9699225137152041  0.30645740787712206  1.0000
  C   C40       1.0  0.981311376107675  0.9424877369228295  0.3030131235489206  1.0000
  C   C41       1.0  0.9161363750987105  0.8991398918073463  0.27131343385827567  1.0000
  C   C42       1.0  0.909336651827902  0.80151800152837  0.1854666960382929  1.0000
  H   H21       1.0  0.7267736863740312  0.23143183518236699  0.4029152490050383  1.0000
  H   H22       1.0  0.9003663857672973  0.5327295216041277  0.25772813931069694  1.0000
  H   H23       1.0  0.8992547563039271  0.5345469754750829  0.8405829314238464  1.0000
  H   H24       1.0  0.7588632286078134  0.2903039857000247  0.07004866029818313  1.0000
  H   H25       1.0  0.8059918504093253  0.3702798739966593  0.6166883711960356  1.0000
  H   H26       1.0  0.07910843559313463  0.749086768959669  0.12048587005346212  1.0000
  H   H27       1.0  0.9858980351381045  0.018285407901895923  0.3696247431120656  1.0000
  H   H28       1.0  0.8707538688820831  0.9416795839615029  0.312905391002122  1.0000
  H   H29       1.0  0.8582506252670179  0.7710664536232616  0.1605992444408828  1.0000
  Zn  Zn1       1.0  0.7505668503002253  0.40803659316204066  0.560668899282698  1.0000
  Zn  Zn2       1.0  0.901288499485839  0.4052483253823196  0.5594146426547779  1.0000
  C   C43       1.0  0.8259149943762891  0.40138047045317427  0.7972504550679878  1.0000
  C   C44       1.0  0.8259420012454741  0.41190605631512867  0.322833200007937  1.0000
  C   C45       1.0  0.8259230821590579  0.6438512431970504  0.5547743598626422  1.0000
  C   C46       1.0  0.8259338620583677  0.16943372409951052  0.565309365490321  1.0000
  O   O3        1.0  0.8831359391672854  0.4125610504438282  0.3707447286574208  1.0000
  O   O4        1.0  0.8831153007669655  0.3986082659528738  0.7483866011768845  1.0000
  O   O5        1.0  0.8831210606135775  0.5944064951665773  0.5525854446311087  1.0000
  O   O6        1.0  0.8831301278953704  0.21676283150859765  0.566545788248286  1.0000
  O   O7        1.0  0.7687251704567923  0.5965220879886783  0.5535377541103743  1.0000
  O   O8        1.0  0.7687194105806167  0.4007254191996321  0.7493388408002959  1.0000
  O   O9        1.0  0.7687400491232809  0.4146781590121209  0.37169540682328917  1.0000
  O   O10       1.0  0.7687342378427675  0.21887993075133272  0.5674965637902496  1.0000
