data_image0
_chemical_formula_structural       NC11NC3H8C7OC6H10C6NCOC6H11Zn2C4O8
_chemical_formula_sum              "N3 C44 H29 O10 Zn2"
_cell_length_a       17.807433833752565
_cell_length_b       10.299379429549807
_cell_length_c       10.299662537453274
_cell_angle_alpha    85.5174171995128
_cell_angle_beta     88.51134067563711
_cell_angle_gamma    90.68187924927143

_space_group_name_H-M_alt    "P 1"
_space_group_IT_number       1

loop_
  _space_group_symop_operation_xyz
  'x, y, z'

loop_
  _atom_site_type_symbol
  _atom_site_label
  _atom_site_symmetry_multiplicity
  _atom_site_fract_x
  _atom_site_fract_y
  _atom_site_fract_z
  _atom_site_occupancy
  N   N1        1.0  0.7075789831236157  0.43910721510868544  0.5340889495030696  1.0000
  C   C1        1.0  0.6567513147489316  0.40435359563949147  0.600665522383532  1.0000
  C   C2        1.0  0.5935165707450583  0.3611229588338998  0.683478283532031  1.0000
  C   C3        1.0  0.6052285753053844  0.297523189064159  0.8062227481224093  1.0000
  C   C4        1.0  0.5439014952364317  0.2559732780454653  0.8867509093352077  1.0000
  C   C5        1.0  0.470707983658679  0.2777096105369423  0.8451755306552118  1.0000
  C   C6        1.0  0.4580192442492667  0.34146411278014455  0.7219708027103242  1.0000
  C   C7        1.0  0.380257858466697  0.3645316811650301  0.6776142244633989  1.0000
  C   C8        1.0  0.3614920339452079  0.34770695692455256  0.5480378213851822  1.0000
  C   C9        1.0  0.2882685865834865  0.36940457570180363  0.5064183848839643  1.0000
  C   C10       1.0  0.2328679933158511  0.40824577124263506  0.5935549431253584  1.0000
  C   C11       1.0  0.1575079933495163  0.43060240186149734  0.5505739409507733  1.0000
  N   N2        1.0  0.09692392643416531  0.4485754719889954  0.5160203433638775  1.0000
  C   C12       1.0  0.2509423211932002  0.42528128313157354  0.7226001236096748  1.0000
  C   C13       1.0  0.3241129732824835  0.4035486368342449  0.7644750071577855  1.0000
  C   C14       1.0  0.520203634096241  0.3830094524676082  0.6414590593340102  1.0000
  H   H1        1.0  0.661690254758688  0.2800952443449338  0.839595417196203  1.0000
  H   H2        1.0  0.5530879190045487  0.2064827627812802  0.9815072941349541  1.0000
  H   H3        1.0  0.4240609343991956  0.24312789629117182  0.9086286988632111  1.0000
  H   H4        1.0  0.40318028148653895  0.3160890523723763  0.4793319083209  1.0000
  H   H5        1.0  0.2748408284740759  0.35556048604703894  0.4063872405720683  1.0000
  H   H6        1.0  0.20853738520537643  0.4556762852449996  0.7907917168446867  1.0000
  H   H7        1.0  0.3370122907363416  0.4189382902664378  0.8643228150357531  1.0000
  H   H8        1.0  0.5117156274569182  0.43386230866139863  0.5469364846330984  1.0000
  C   C15       1.0  0.9022632214392343  0.06244966650684125  0.5252081449214443  1.0000
  C   C16       1.0  0.9477887059345613  0.05362727824371483  0.6348424595071636  1.0000
  C   C17       1.0  0.970046127232782  0.9319208222041986  0.691022705656031  1.0000
  C   C18       1.0  0.9476972997053283  0.8184030839976437  0.6345704155366803  1.0000
  C   C19       1.0  0.9022468703357235  0.8252232050728964  0.5249119923908332  1.0000
  C   C20       1.0  0.8796302693609587  0.9477226515918487  0.47107163859381984  1.0000
  C   C21       1.0  0.018770209427939166  0.9225380275352489  0.8059605130983394  1.0000
  O   O1        1.0  0.06642957904339108  0.832906073810499  0.8161051005686868  1.0000
  C   C22       1.0  0.013423602093312947  0.014735950919853913  0.9093947160455118  1.0000
  C   C23       1.0  0.07767465427828135  0.04573701069286784  0.9779765274776264  1.0000
  C   C24       1.0  0.07300811199575308  0.13134708464914358  0.07668661841083779  1.0000
  C   C25       1.0  0.004185830951843661  0.1859565298683461  0.10863910618722439  1.0000
  C   C26       1.0  0.9398192962580175  0.15464297264112337  0.042306781555578876  1.0000
  C   C27       1.0  0.9441841604871244  0.06910524727571588  0.9435230227984572  1.0000
  H   H9        1.0  0.8173020566509409  0.2865318724047672  0.3171169009465189  1.0000
  H   H10       1.0  0.9666807319602366  0.14165936906220988  0.6758032513252707  1.0000
  H   H11       1.0  0.9652782663915949  0.7245133244517012  0.6771922709592872  1.0000
  H   H12       1.0  0.8445339054080365  0.9537199640601428  0.3865512229629291  1.0000
  H   H13       1.0  0.8853098247201453  0.5004486217104764  0.48212986561439974  1.0000
  H   H14       1.0  0.13157222266173574  0.004610266850793909  0.9544276607750315  1.0000
  H   H15       1.0  0.12280070962705869  0.15530833976218417  0.12847259458996252  1.0000
  H   H16       1.0  0.0006760930892644179  0.25211366623080256  0.1851439471846552  1.0000
  H   H17       1.0  0.8864048736063724  0.19621947902423797  0.0678330772243102  1.0000
  H   H18       1.0  0.8933536167241926  0.04443270326843041  0.8949450008611473  1.0000
  C   C28       1.0  0.9023067559041117  0.4439782240177408  0.1436816363262392  1.0000
  C   C29       1.0  0.9789961439496221  0.47821965108799036  0.13629606044946518  1.0000
  C   C30       1.0  0.01784976342768041  0.4935904294890403  0.01588266815921968  1.0000
  C   C31       1.0  0.9788646923623803  0.47790636298930766  0.9011589849629407  1.0000
  C   C32       1.0  0.9022033532537687  0.4436946240184516  0.906438500755844  1.0000
  C   C33       1.0  0.8644213557473204  0.4264807058416129  0.028245252365244777  1.0000
  N   N3        1.0  0.0960803507618968  0.530580503757071  0.01175492216272045  1.0000
  C   C34       1.0  0.14925161054848646  0.49202117613544294  0.9150898679809192  1.0000
  O   O2        1.0  0.13555139422850515  0.3931240339746418  0.8542125133689389  1.0000
  C   C35       1.0  0.22137986938983256  0.5641080435677341  0.8893647389184727  1.0000
  C   C36       1.0  0.23044056327594298  0.6924061277595273  0.9252482113526264  1.0000
  C   C37       1.0  0.29859367600183995  0.7596228764623021  0.8998692625623201  1.0000
  C   C38       1.0  0.358232262929558  0.7000426051327788  0.8381504864858753  1.0000
  C   C39       1.0  0.34978115029692947  0.5732058128457707  0.8012321937605638  1.0000
  C   C40       1.0  0.28175614011849026  0.5055351205176366  0.8262762960262671  1.0000
  H   H19       1.0  0.7574717517872166  0.38058944174672504  0.36479128114285087  1.0000
  H   H20       1.0  0.009095694031284296  0.4921715697401394  0.22431443524846562  1.0000
  H   H21       1.0  0.007962483509879936  0.49457883179125006  0.8076892045634789  1.0000
  H   H22       1.0  0.8053048564959195  0.4000675298861902  0.03307448312977068  1.0000
  H   H23       1.0  0.8725534734568042  0.4322459197678967  0.5808950895189491  1.0000
  H   H24       1.0  0.11658249163899725  0.5782856709736794  0.089707678540907  1.0000
  H   H25       1.0  0.18479143758117855  0.7418341981073444  0.9711208692695474  1.0000
  H   H26       1.0  0.3050543102573815  0.8582653065946235  0.9276469587152452  1.0000
  H   H27       1.0  0.4109084934962186  0.7523047280088315  0.8185685373248588  1.0000
  H   H28       1.0  0.39598551200799026  0.5272087556919856  0.7531354576041647  1.0000
  H   H29       1.0  0.276582832048627  0.40714663024044406  0.7970637338047823  1.0000
  Zn  Zn1       1.0  0.8199355223077778  0.4418360718890675  0.5288822261294917  1.0000
  Zn  Zn2       1.0  0.984567371281718  0.44583599104480265  0.5212376571385824  1.0000
  C   C41       1.0  0.9022213142364763  0.43857421273472075  0.7622632145900554  1.0000
  C   C42       1.0  0.902283377075268  0.44909953254847657  0.28785671203297136  1.0000
  C   C43       1.0  0.9022467917465483  0.6810445920858346  0.5197928573495065  1.0000
  C   C44       1.0  0.9022578434119238  0.2066275914106952  0.5303271417282536  1.0000
  O   O3        1.0  0.9647524597477557  0.4523305728682121  0.33334211260351965  1.0000
  O   O4        1.0  0.9647039956852301  0.4383780388601737  0.7109753895637199  1.0000
  O   O5        1.0  0.9647237266948298  0.634175915677927  0.5151788991581028  1.0000
  O   O6        1.0  0.9647326725734624  0.2565327040125398  0.5291385082370039  1.0000
  O   O7        1.0  0.8397701648352638  0.6311393575577713  0.5209813776329546  1.0000
  O   O8        1.0  0.839750433798167  0.4353430411631254  0.7167777981857228  1.0000
  O   O9        1.0  0.8397988981233506  0.4492955304942299  0.3391429598011031  1.0000
  O   O10       1.0  0.8397791109329816  0.25349765231291754  0.5349394528086047  1.0000
