data_image0
_chemical_formula_structural       NC10NC3NH7C7OC6H10C6NCOC6H11Zn2C4O8
_chemical_formula_sum              "N4 C43 H28 O10 Zn2"
_cell_length_a       19.210446455230148
_cell_length_b       10.299379429549807
_cell_length_c       10.299662537453274
_cell_angle_alpha    85.5174171995128
_cell_angle_beta     89.97714991374127
_cell_angle_gamma    89.94476483549958

_space_group_name_H-M_alt    "P 1"
_space_group_IT_number       1

loop_
  _space_group_symop_operation_xyz
  'x, y, z'

loop_
  _atom_site_type_symbol
  _atom_site_label
  _atom_site_symmetry_multiplicity
  _atom_site_fract_x
  _atom_site_fract_y
  _atom_site_fract_z
  _atom_site_occupancy
  N   N1        1.0  0.6556166744307917  0.4208114175262758  0.5668128610962104  1.0000
  C   C1        1.0  0.5953878729928604  0.4230189398087294  0.5670432580754059  1.0000
  C   C2        1.0  0.5205831208967935  0.4257558632842666  0.5673286904736727  1.0000
  C   C3        1.0  0.4849585872030947  0.541985570524322  0.5824009615737169  1.0000
  C   C4        1.0  0.4122930972785825  0.5421371351012099  0.5823483116734964  1.0000
  C   C5        1.0  0.3754162834489297  0.42646482748609316  0.5674149325297386  1.0000
  C   C6        1.0  0.2980943128299003  0.4251083508780784  0.5672648020447077  1.0000
  C   C7        1.0  0.26033586641736  0.5287084371601902  0.5038667465853754  1.0000
  C   C8        1.0  0.1875576701395862  0.5273061870438243  0.5037581500630224  1.0000
  C   C9        1.0  0.1515364874832738  0.4225613918923825  0.5669965234672538  1.0000
  C   C10       1.0  0.0766071189475978  0.4212593063115577  0.5668601378704647  1.0000
  N   N2        1.0  0.0163693884519453  0.42021238528012117  0.5667505187421307  1.0000
  C   C11       1.0  0.1885712657889505  0.3190870135355022  0.6303695271579279  1.0000
  C   C12       1.0  0.2613513346195566  0.32021496370459746  0.63052846396849  1.0000
  C   C13       1.0  0.4136504571748728  0.3120553432397195  0.5526302078258214  1.0000
  N   N3        1.0  0.4844201290763563  0.31450036092569333  0.5527949371702123  1.0000
  H   H1        1.0  0.5130488458795457  0.631418379959976  0.5944189840218297  1.0000
  H   H2        1.0  0.3850133325845084  0.6321512844114869  0.5957608776235719  1.0000
  H   H3        1.0  0.2870596590221524  0.6099855273196901  0.4528476489312523  1.0000
  H   H4        1.0  0.15940772272182  0.607755009962986  0.4540697469013093  1.0000
  H   H5        1.0  0.1612079939398571  0.23767479048096507  0.6799587736245782  1.0000
  H   H6        1.0  0.2888562504522786  0.2398847637600643  0.6816545722336629  1.0000
  H   H7        1.0  0.3873961243619344  0.22117825325266827  0.5391716891888387  1.0000
  C   C14       1.0  0.8360039328611044  0.039119938435168145  0.5669357578047138  1.0000
  C   C15       1.0  0.8781861732308166  0.02912040236376412  0.6786755220510252  1.0000
  C   C16       1.0  0.898809081600037  0.9068384384523476  0.7358851230906203  1.0000
  C   C17       1.0  0.8781014795789963  0.7938985715992372  0.678399250751246  1.0000
  C   C18       1.0  0.8359887825296747  0.801893899790039  0.5666388490729173  1.0000
  C   C19       1.0  0.8150330714759829  0.9249781414531458  0.5117525291456373  1.0000
  C   C20       1.0  0.9439550250146689  0.896195790160703  0.8530763080303392  1.0000
  O   O1        1.0  0.9881144448928763  0.8053315129778135  0.8654250324734889  1.0000
  C   C21       1.0  0.9390010552051918  0.9885319602257209  0.9562632426019457  1.0000
  C   C22       1.0  0.9985337182249878  0.017871687097009037  0.027816518424064185  1.0000
  C   C23       1.0  0.9942098716928937  0.1036024233610231  0.1263107924368453  1.0000
  C   C24       1.0  0.9304416760554796  0.15999139928021955  0.1550804069309063  1.0000
  C   C25       1.0  0.8708020111882316  0.13034216097417328  0.08577127710702726  1.0000
  C   C26       1.0  0.8748463339260214  0.04469157375967914  0.9871893833495111  1.0000
  H   H8        1.0  0.7572820408281182  0.2653989765036464  0.35491525404156077  1.0000
  H   H9        1.0  0.89569083005589  0.11666400399259769  0.7205100269163323  1.0000
  H   H10       1.0  0.8943913570160639  0.6995542227912241  0.7218341857215576  1.0000
  H   H11       1.0  0.7825140708156599  0.931882937023788  0.42560898685520954  1.0000
  H   H12       1.0  0.8202955386855059  0.47755725588825526  0.5230734226273408  1.0000
  H   H13       1.0  0.04847322375902019  0.9753513193276463  0.006760291136901575  1.0000
  H   H14       1.0  0.040345862230933616  0.1262761963567416  0.1803995625114111  1.0000
  H   H15       1.0  0.927189681973589  0.2262392865765399  0.23142293056975294  1.0000
  H   H16       1.0  0.82131017072836  0.17329979863467782  0.10882727774673617  1.0000
  H   H17       1.0  0.8277486206583846  0.021333349936954127  0.9362605648792319  1.0000
  C   C27       1.0  0.8360442702958881  0.4206473702798512  0.18541126257906004  1.0000
  C   C28       1.0  0.9071018380780367  0.452905847666935  0.18157239571200612  1.0000
  C   C29       1.0  0.9431021735873713  0.467271991992823  0.06295589456635153  1.0000
  C   C30       1.0  0.9069800398695941  0.4525959584985333  0.9464292408898567  1.0000
  C   C31       1.0  0.835948461201268  0.4203664439523429  0.9481633448722966  1.0000
  C   C32       1.0  0.800941051216901  0.4041294510306688  0.06822276540530625  1.0000
  N   N4        1.0  0.015587759974363236  0.5022392659449073  0.06244613452599723  1.0000
  C   C33       1.0  0.06485429466239134  0.4623050944832843  0.9682401296461847  1.0000
  O   O2        1.0  0.05216017785434679  0.3637621974182308  0.906729171325849  1.0000
  C   C34       1.0  0.13168568779576462  0.5325269488849347  0.9458507677870993  1.0000
  C   C35       1.0  0.14008099367020344  0.6605907516392482  0.9821532766154557  1.0000
  C   C36       1.0  0.20322916254346302  0.7260452722589625  0.9599262536013988  1.0000
  C   C37       1.0  0.2584880848148601  0.6649229320713257  0.9009656259334147  1.0000
  C   C38       1.0  0.25065759452106384  0.5383046593415128  0.8636564885543621  1.0000
  C   C39       1.0  0.18762812075909663  0.4723928827619388  0.8855545894940011  1.0000
  H   H18       1.0  0.7018454797649664  0.36100357193483035  0.3998226193128478  1.0000
  H   H19       1.0  0.9349909746932697  0.4660794853232513  0.270982805943599  1.0000
  H   H20       1.0  0.9339409834821217  0.46851604868320873  0.8543051668606756  1.0000
  H   H21       1.0  0.7461658761938988  0.37924484436557404  0.0703179931237572  1.0000
  H   H22       1.0  0.8084759725414934  0.4096843936189427  0.6212486944262618  1.0000
  H   H23       1.0  0.034584290031288045  0.5494143113963978  0.1413470680851543  1.0000
  H   H24       1.0  0.09778419191027021  0.7111991667732245  0.02591476674875337  1.0000
  H   H25       1.0  0.20921534874508407  0.8245206504304248  0.9880027393301254  1.0000
  H   H26       1.0  0.30729594362548585  0.7158230110274233  0.8838198321037978  1.0000
  H   H27       1.0  0.2934688575626496  0.4911129007205386  0.8176965985789724  1.0000
  H   H28       1.0  0.18283472367768971  0.3741381581837495  0.856102773592065  1.0000
  Zn  Zn1       1.0  0.7597221132968357  0.4206350827351131  0.5668023709953367  1.0000
  Zn  Zn2       1.0  0.912263932519907  0.4203781329669747  0.566771648938456  1.0000
  C   C40       1.0  0.8359651031875808  0.41524556825331427  0.803988889360929  1.0000
  C   C41       1.0  0.8360226083325113  0.4257692833145792  0.32958525706836417  1.0000
  C   C42       1.0  0.8359887097118339  0.6577152888350493  0.5615197103970209  1.0000
  C   C43       1.0  0.8359989497787004  0.1832980023981261  0.5720545058900448  1.0000
  O   O3        1.0  0.8939041639090758  0.4273850669364838  0.37795971000965256  1.0000
  O   O4        1.0  0.8938592588903286  0.413433786058766  0.7555907456176707  1.0000
  O   O5        1.0  0.8938775409184914  0.6092311526938166  0.559795167726175  1.0000
  O   O6        1.0  0.8938858298407728  0.23158770971575882  0.573755190531527  1.0000
  O   O7        1.0  0.7781001639209343  0.6094255060754294  0.5598188294059183  1.0000
  O   O8        1.0  0.7780818818672937  0.4136296998641973  0.7556143374432942  1.0000
  O   O9        1.0  0.7781267871294103  0.4275809360581897  0.37798174042300303  1.0000
  O   O10       1.0  0.7781084530462119  0.23178356951223966  0.5737773183181516  1.0000
