data_image0
_chemical_formula_structural       NC10NC3NH7C7OC6OCH12C7OC3NC3H11Zn2C4O8
_chemical_formula_sum              "N4 C44 H30 O11 Zn2"
_cell_length_a       19.210446455230148
_cell_length_b       10.299359160628079
_cell_length_c       10.298749378158432
_cell_angle_alpha    85.56206142688012
_cell_angle_beta     89.99958857852239
_cell_angle_gamma    89.96984927250973

_space_group_name_H-M_alt    "P 1"
_space_group_IT_number       1

loop_
  _space_group_symop_operation_xyz
  'x, y, z'

loop_
  _atom_site_type_symbol
  _atom_site_label
  _atom_site_symmetry_multiplicity
  _atom_site_fract_x
  _atom_site_fract_y
  _atom_site_fract_z
  _atom_site_occupancy
  N   N1        1.0  0.6556493747044333  0.42033773435463306  0.5674098933853866  1.0000
  C   C1        1.0  0.5954211397994238  0.4225452448000142  0.5676413795076383  1.0000
  C   C2        1.0  0.5206170900547712  0.4252821535355995  0.5679281622295833  1.0000
  C   C3        1.0  0.4850230026422105  0.5415121043975084  0.583057971887776  1.0000
  C   C4        1.0  0.4123575372441046  0.5416636479838455  0.5830053922651268  1.0000
  C   C5        1.0  0.3754504371244238  0.42599111754540786  0.5680147548782124  1.0000
  C   C6        1.0  0.298128116586805  0.42463464568945897  0.5678639545749025  1.0000
  C   C7        1.0  0.2603806818860647  0.5282123063894735  0.5045121345763321  1.0000
  C   C8        1.0  0.187602133662701  0.5268100749186646  0.5044028486965204  1.0000
  C   C9        1.0  0.151569637079824  0.42208769963747805  0.5675944192223872  1.0000
  C   C10       1.0  0.0766399342777434  0.4207856208947689  0.5674573911730514  1.0000
  N   N2        1.0  0.0164019350288441  0.41973870537305724  0.5673472554936472  1.0000
  C   C11       1.0  0.1885934279232558  0.3186357349393183  0.6309212469644501  1.0000
  C   C12       1.0  0.2613737948784114  0.31976369120595427  0.6310807429902316  1.0000
  C   C13       1.0  0.4136546521857461  0.3115814086714026  0.5531733960884984  1.0000
  N   N3        1.0  0.4844249325849715  0.3140263865895798  0.5533393258045438  1.0000
  H   H1        1.0  0.5131367764694087  0.6309452252634951  0.5951202949659871  1.0000
  H   H2        1.0  0.3851017168578998  0.631678498701657  0.596462633353102  1.0000
  H   H3        1.0  0.2871128444868662  0.6094714253795959  0.45352922564977693  1.0000
  H   H4        1.0  0.1594606411175321  0.6072413487441375  0.4547503187750772  1.0000
  H   H5        1.0  0.1612214542492562  0.23724106655472754  0.6804741449618825  1.0000
  H   H6        1.0  0.2888705854404773  0.2394514597654458  0.6821711302407405  1.0000
  H   H7        1.0  0.3873761628605371  0.22070363490382672  0.539669779457481  1.0000
  C   C14       1.0  0.8359470638655229  0.038660078157928934  0.5673470988082832  1.0000
  C   C15       1.0  0.7783645831176834  0.04404293616921717  0.48295350290494254  1.0000
  C   C16       1.0  0.7498204682505206  0.9297725548538843  0.43929437210942957  1.0000
  C   C17       1.0  0.7785304137850287  0.8087811286437666  0.4832086004425675  1.0000
  C   C18       1.0  0.8361109018348258  0.801406347854041  0.5674213226192499  1.0000
  C   C19       1.0  0.8645837378777473  0.9169325784786629  0.6087947621255496  1.0000
  C   C20       1.0  0.6885356874103988  0.9375935297654514  0.3513646053563877  1.0000
  O   O1        1.0  0.6443009561667357  0.026538793401746252  0.36293972652059603  1.0000
  C   C21       1.0  0.6774308998605585  0.8445816154327239  0.25031109076483404  1.0000
  C   C22       1.0  0.7340442210473661  0.7911435774103212  0.1862410558508969  1.0000
  C   C23       1.0  0.7228477763745197  0.7047827332735523  0.09015363929729059  1.0000
  C   C24       1.0  0.6552211176328703  0.6709833024001487  0.05539994551266858  1.0000
  C   C25       1.0  0.5983733837044308  0.7254566037833585  0.11815815904349192  1.0000
  C   C26       1.0  0.6095061800814316  0.8118764394736093  0.21429201178698154  1.0000
  O   O2        1.0  0.6467820650595932  0.5837775510627976  0.958495492548411  1.0000
  C   C27       1.0  0.5811800926476  0.5410453981895401  0.9136352751711838  1.0000
  H   H8        1.0  0.9444232484493462  0.23574079181717789  0.7270160988967633  1.0000
  H   H9        1.0  0.7559750174706141  0.13741063800774955  0.4499700123633401  1.0000
  H   H10       1.0  0.755419498396282  0.7201846194624396  0.4527587591217441  1.0000
  H   H11       1.0  0.9090009461162206  0.9119758377194177  0.6737608870403029  1.0000
  H   H12       1.0  0.8580212076250543  0.47107211149692374  0.600138209869312  1.0000
  H   H13       1.0  0.7869680455443181  0.8171419672501425  0.2093648058587274  1.0000
  H   H14       1.0  0.7670208890428719  0.664265319588897  0.04196091989922879  1.0000
  H   H15       1.0  0.5454203315296707  0.7017353765616047  0.093389669182107  1.0000
  H   H16       1.0  0.564943941170012  0.8523487845282802  0.26143395491668375  1.0000
  H   H17       1.0  0.5898630230988557  0.47264130580336433  0.8371529396960868  1.0000
  H   H18       1.0  0.550589443400075  0.6254476358643574  0.8711272173211402  1.0000
  H   H19       1.0  0.5519663541059334  0.4895183965216325  0.9951824802773697  1.0000
  C   C28       1.0  0.8359968803567465  0.4200612931077694  0.1859831420373228  1.0000
  C   C29       1.0  0.8740447851437286  0.5368655991674911  0.1759682242310996  1.0000
  C   C30       1.0  0.8925858419793479  0.596732006952392  0.05366550617456811  1.0000
  C   C31       1.0  0.8740475621246487  0.5369144571215871  0.9407241990825685  1.0000
  C   C32       1.0  0.836061057458229  0.4200051529023554  0.9487852351920636  1.0000
  C   C33       1.0  0.8171169063428083  0.36250129868985237  0.07183696890161118  1.0000
  C   C34       1.0  0.93332849356485  0.7194351755772617  0.042990243623204805  1.0000
  O   O3        1.0  0.9768275194577745  0.7377061766997115  0.9516375624533966  1.0000
  C   C35       1.0  0.9247253404112853  0.8214026501903398  0.13589134401015257  1.0000
  C   C36       1.0  0.8596081717388344  0.8440853062681621  0.19260911410941706  1.0000
  C   C37       1.0  0.8518427104774767  0.9416025014426914  0.2793202241003947  1.0000
  N   N4        1.0  0.7855739850143882  0.9635646762333834  0.3370060093357974  1.0000
  C   C38       1.0  0.9092984626680978  0.01775998806212664  0.30871534255305066  1.0000
  C   C39       1.0  0.9738675150255496  0.9970289387506917  0.25153852330077964  1.0000
  C   C40       1.0  0.9815929283553051  0.8998234878498881  0.16520425522450166  1.0000
  H   H20       1.0  0.7650273886121375  0.19834341976295833  0.41234656442273376  1.0000
  H   H21       1.0  0.8899512862184852  0.5806860175061916  0.26351587951071087  1.0000
  H   H22       1.0  0.8887377393954837  0.5824130884812959  0.8463197652878982  1.0000
  H   H23       1.0  0.7877921510141809  0.27246385745040613  0.07880487236961953  1.0000
  H   H24       1.0  0.7645376113341852  0.19886720138944036  0.7567321961141751  1.0000
  H   H25       1.0  0.8146821545315042  0.7871513492719802  0.16856836996929347  1.0000
  H   H26       1.0  0.7423977419420644  0.9073630077363883  0.31578002628494795  1.0000
  H   H27       1.0  0.7792116774784217  0.03609531215280848  0.4015018934326007  1.0000
  H   H28       1.0  0.9039659038803232  0.09338494497897543  0.3754566911362667  1.0000
  H   H29       1.0  0.018050421695799734  0.05642400298217609  0.27417299180707744  1.0000
  H   H30       1.0  0.032159449824373576  0.8850944910522338  0.12219358841798189  1.0000
  Zn  Zn1       1.0  0.7597547699773755  0.4201614028412166  0.5673993168050426  1.0000
  Zn  Zn2       1.0  0.91229652243801  0.4199044533002301  0.5673684677181086  1.0000
  C   C41       1.0  0.8360462774366584  0.414841982439345  0.8045988055221338  1.0000
  C   C42       1.0  0.8360066810926158  0.4252255095460986  0.3301691063007097  1.0000
  C   C43       1.0  0.8360759078477862  0.6572314888041906  0.5622316524619442  1.0000
  C   C44       1.0  0.8359769983003327  0.1828344429234816  0.5725363284641347  1.0000
  O   O4        1.0  0.8938987691729197  0.42685549086820984  0.3785475254437818  1.0000
  O   O5        1.0  0.8939298496561814  0.41301600264231486  0.7561965986630559  1.0000
  O   O6        1.0  0.8939529963328371  0.6087485956807646  0.560483408068289  1.0000
  O   O7        1.0  0.893875570437897  0.2311229072150509  0.5742606186671062  1.0000
  O   O8        1.0  0.7781756699224747  0.6089429490154945  0.5605071658597407  1.0000
  O   O9        1.0  0.7781525235719603  0.41321191632391474  0.7562202873549679  1.0000
  O   O10       1.0  0.7781214429938572  0.4270513594075469  0.3785696525990361  1.0000
  O   O11       1.0  0.7780982442621877  0.2313187664581955  0.5742828431974989  1.0000
