data_image0
_chemical_formula_structural       NC10NC3NH7C7OC3OC4H12C7OC6H10Zn2C4O8
_chemical_formula_sum              "N3 C44 H29 O11 Zn2"
_cell_length_a       19.210446455230148
_cell_length_b       10.299371110280156
_cell_length_c       10.299382801718286
_cell_angle_alpha    85.58971110706742
_cell_angle_beta     89.97114799571779
_cell_angle_gamma    89.9600477448761

_space_group_name_H-M_alt    "P 1"
_space_group_IT_number       1

loop_
  _space_group_symop_operation_xyz
  'x, y, z'

loop_
  _atom_site_type_symbol
  _atom_site_label
  _atom_site_symmetry_multiplicity
  _atom_site_fract_x
  _atom_site_fract_y
  _atom_site_fract_z
  _atom_site_occupancy
  N   N1        1.0  0.6559003950406923  0.4199314785471455  0.5678374583009775  1.0000
  C   C1        1.0  0.5956718959331123  0.4221390110655907  0.5680694077529103  1.0000
  C   C2        1.0  0.5208675186835984  0.42487594710986154  0.5683567649366374  1.0000
  C   C3        1.0  0.48525873739809816  0.5411078422003694  0.5835107290740844  1.0000
  C   C4        1.0  0.4125932720900257  0.5412593690986638  0.5834581868631568  1.0000
  C   C5        1.0  0.3757007776413293  0.42558492146499804  0.5684435053856338  1.0000
  C   C6        1.0  0.2983786217288213  0.4242284337707636  0.5682924210757119  1.0000
  C   C7        1.0  0.2606385464323599  0.5277874001813903  0.5049684153611844  1.0000
  C   C8        1.0  0.1878601559820524  0.5263851647272606  0.5048588320795158  1.0000
  C   C9        1.0  0.1518204477027847  0.4216814615990023  0.5680223513510461  1.0000
  C   C10       1.0  0.0768909008680012  0.4203793697069207  0.5678850500511277  1.0000
  N   N2        1.0  0.0166530270115829  0.4193324436231747  0.5677746946657412  1.0000
  C   C11       1.0  0.1888368742600714  0.31824818229856144  0.6313213943157219  1.0000
  C   C12       1.0  0.2616170952457947  0.3193761608009762  0.6314811237122597  1.0000
  C   C13       1.0  0.4139194427477533  0.3111733125038958  0.5535783661765838  1.0000
  N   N3        1.0  0.4846894546038229  0.3136182908208953  0.55374481646812  1.0000
  H   H1        1.0  0.5133610930360989  0.630542570896121  0.5955916033782451  1.0000
  H   H2        1.0  0.3853256087961334  0.6312761880912281  0.5969339920899308  1.0000
  H   H3        1.0  0.2873768239105509  0.6090315122578811  0.454007432325239  1.0000
  H   H4        1.0  0.1597245001309066  0.6068018001282458  0.45522793829265007  1.0000
  H   H5        1.0  0.1614591788237885  0.23686814307560677  0.6808524538597571  1.0000
  H   H6        1.0  0.2891076554248039  0.2390789479180888  0.6825497831424179  1.0000
  H   H7        1.0  0.3876528878647457  0.22029357356083135  0.5400560006788826  1.0000
  C   C14       1.0  0.8362331268872438  0.03826062977371536  0.5676912832733074  1.0000
  C   C15       1.0  0.8282376390034636  0.047537909138957835  0.4317092096271382  1.0000
  C   C16       1.0  0.8234186134364692  0.9350315278457714  0.363291938314001  1.0000
  C   C17       1.0  0.8282721338307089  0.8122700246134652  0.43202028584566565  1.0000
  C   C18       1.0  0.8363269481738832  0.800993336439531  0.5679321162991748  1.0000
  C   C19       1.0  0.8400785804728607  0.9145860223442778  0.6350188863716568  1.0000
  C   C20       1.0  0.8157019037861183  0.9446984239749131  0.2195479944541494  1.0000
  O   O1        1.0  0.8442480819798834  0.8596012812721379  0.15552085876808985  1.0000
  C   C21       1.0  0.7755932476348611  0.05082193740316843  0.14844499396927824  1.0000
  C   C22       1.0  0.7950734717343454  0.09592783326818344  0.021300584630913777  1.0000
  C   C23       1.0  0.7574349170816382  0.19499171827725026  0.951927172281438  1.0000
  O   O2        1.0  0.779682180290181  0.23674055585731235  0.825826979488212  1.0000
  C   C24       1.0  0.7465162498950544  0.336266771241406  0.7443987451360337  1.0000
  C   C25       1.0  0.6990316316749825  0.24895751435936608  0.010424716063659023  1.0000
  C   C26       1.0  0.6788370304652611  0.2035627064888368  0.13605220906050297  1.0000
  C   C27       1.0  0.7165992524792401  0.10477978799547305  0.20467343137521055  1.0000
  H   H8        1.0  0.852383733453476  0.22809108243523735  0.8240783398882292  1.0000
  H   H9        1.0  0.8265237222223885  0.14246611871458348  0.37868043170962906  1.0000
  H   H10       1.0  0.8250812939358725  0.7254059560360604  0.379299029474816  1.0000
  H   H11       1.0  0.8462429638139312  0.9066301177496221  0.739851101357168  1.0000
  H   H12       1.0  0.8400002745228367  0.4692130594012641  0.6200177136863263  1.0000
  H   H13       1.0  0.840088751274741  0.054949295957582356  0.9759204589211006  1.0000
  H   H14       1.0  0.7749291680400747  0.3492947071349233  0.6505240502464185  1.0000
  H   H15       1.0  0.7475331863389691  0.4297298189071532  0.7914170596584928  1.0000
  H   H16       1.0  0.6919679672092299  0.3081206357423434  0.7246442549832546  1.0000
  H   H17       1.0  0.6688050383613768  0.3254982323974509  0.9595421208306121  1.0000
  H   H18       1.0  0.6335588906262015  0.24470287604873153  0.18021066307075295  1.0000
  H   H19       1.0  0.6992169022264424  0.069676876311076  0.30105396823278174  1.0000
  C   C28       1.0  0.8363494637401006  0.4195536380434213  0.1864418675283328  1.0000
  C   C29       1.0  0.9094792921805055  0.4202956814762169  0.1851257643440538  1.0000
  C   C30       1.0  0.9463637208182698  0.4191818619041172  0.06740337383982409  1.0000
  C   C31       1.0  0.9093096687452984  0.42032400001727255  0.9498802340151484  1.0000
  C   C32       1.0  0.836210576911857  0.41970032499620924  0.9491814720890313  1.0000
  C   C33       1.0  0.8001544582747265  0.41897403823727974  0.06802793147801811  1.0000
  C   C34       1.0  0.02357948413743527  0.4213493234566592  0.06576217536437134  1.0000
  O   O3        1.0  0.054257427983516626  0.48200759405187865  0.9712491539854979  1.0000
  C   C35       1.0  0.06599282595617728  0.3546953376776649  0.17123993682715621  1.0000
  C   C36       1.0  0.13142680085492664  0.40504675847018734  0.20234590622994197  1.0000
  C   C37       1.0  0.17214288184360282  0.3420449261390046  0.30057336047807914  1.0000
  C   C38       1.0  0.14827733955730005  0.22778034940645608  0.36790535679805747  1.0000
  C   C39       1.0  0.0837662360951561  0.17598042535792913  0.33677575101522117  1.0000
  C   C40       1.0  0.042851810605293306  0.23860387258412907  0.2386502723911723  1.0000
  H   H20       1.0  0.698342777835691  0.4201649958455762  0.39609072992597727  1.0000
  H   H21       1.0  0.9378379039960616  0.423199084741664  0.27572060752812977  1.0000
  H   H22       1.0  0.9376750845531129  0.4204482520898456  0.8589238714773151  1.0000
  H   H23       1.0  0.7437768706244028  0.41840277737269305  0.0682383128235593  1.0000
  H   H24       1.0  0.8081292658504265  0.42056572016566696  0.6213715767248371  1.0000
  H   H25       1.0  0.15076341528330062  0.49368818276908844  0.15143506524850947  1.0000
  H   H26       1.0  0.22225462052828848  0.3818456849484104  0.32444992997919986  1.0000
  H   H27       1.0  0.17989308776507662  0.17910032237520657  0.4438278967130571  1.0000
  H   H28       1.0  0.06556261988172496  0.08688120859288517  0.38831501294509096  1.0000
  H   H29       1.0  0.9935755140900016  0.1955195395707281  0.21458629994647738  1.0000
  Zn  Zn1       1.0  0.7600058093108429  0.4197551473745713  0.5678268440629954  1.0000
  Zn  Zn2       1.0  0.9125475935635189  0.41949819422627144  0.5677959413650708  1.0000
  C   C41       1.0  0.8362346612537825  0.4144988827441818  0.8050057551213621  1.0000
  C   C42       1.0  0.8363204075504614  0.4247560947052531  0.33061715795336166  1.0000
  C   C43       1.0  0.8363065672831599  0.6568196208484083  0.562711395704792  1.0000
  C   C44       1.0  0.8362484492647154  0.18243379638952373  0.5729115861266396  1.0000
  O   O4        1.0  0.8941994674766122  0.42639890852789986  0.37899197327589573  1.0000
  O   O5        1.0  0.8941312859463435  0.4126600676268435  0.7566071112098909  1.0000
  O   O6        1.0  0.8941885703597221  0.6083371297842053  0.5609527022926581  1.0000
  O   O7        1.0  0.8941421310299255  0.23072185572977433  0.5746462848317067  1.0000
  O   O8        1.0  0.7784112197894132  0.6085314859601669  0.5609765006000744  1.0000
  O   O9        1.0  0.7783539355773801  0.4128559841034063  0.7566308407643145  1.0000
  O   O10       1.0  0.7784221174326383  0.4265947794478646  0.37901414141161593  1.0000
  O   O11       1.0  0.7783647809642368  0.23091771737960065  0.5746685503325635  1.0000
