data_image0
_chemical_formula_structural       NC9NC5H8C7OC3OC4H12C7OC3NC3H11Zn2C4O8
_chemical_formula_sum              "N3 C45 H31 O11 Zn2"
_cell_length_a       17.807436237873137
_cell_length_b       10.299371110280156
_cell_length_c       10.298749378158432
_cell_angle_alpha    85.57454226300092
_cell_angle_beta     89.40102399035862
_cell_angle_gamma    88.40331171880233

_space_group_name_H-M_alt    "P 1"
_space_group_IT_number       1

loop_
  _space_group_symop_operation_xyz
  'x, y, z'

loop_
  _atom_site_type_symbol
  _atom_site_label
  _atom_site_symmetry_multiplicity
  _atom_site_fract_x
  _atom_site_fract_y
  _atom_site_fract_z
  _atom_site_occupancy
  N   N1        1.0  0.7074651432194659  0.3878747650197072  0.5574441484406059  1.0000
  C   C1        1.0  0.6468719511101987  0.352686017003911  0.5464082416359233  1.0000
  C   C2        1.0  0.5715006798809152  0.30891508966134085  0.5326807718540201  1.0000
  C   C3        1.0  0.5533903193916093  0.23750896634094354  0.4276466319554142  1.0000
  C   C4        1.0  0.480208682071825  0.194899279741364  0.4142354733046689  1.0000
  C   C5        1.0  0.4240886337346113  0.2233181900847261  0.5058258815115872  1.0000
  C   C6        1.0  0.34631544081833  0.1781499767357102  0.49165541035346827  1.0000
  C   C7        1.0  0.2841522729193865  0.2599038432967664  0.5176222047563634  1.0000
  C   C8        1.0  0.2108283050416995  0.21709111775003542  0.5042246645643242  1.0000
  C   C9        1.0  0.1476154372401449  0.3015363018240156  0.5305562384276232  1.0000
  N   N2        1.0  0.0968052789800777  0.3694243874725671  0.5517260954287446  1.0000
  C   C10       1.0  0.1990839237038298  0.09226654819526559  0.46483489699797276  1.0000
  C   C11       1.0  0.2603897191862578  0.010498830063186304  0.43885970783614825  1.0000
  C   C12       1.0  0.3335941844646891  0.05291703218272881  0.45205456856241133  1.0000
  C   C13       1.0  0.4428904840580785  0.29521866062540303  0.6110794249101861  1.0000
  C   C14       1.0  0.5161249534203382  0.33763796620282727  0.6243348598317544  1.0000
  H   H1        1.0  0.5957757883937943  0.21502980614960787  0.3559207614417299  1.0000
  H   H2        1.0  0.46728152924411287  0.14122406062756254  0.3312911529024829  1.0000
  H   H3        1.0  0.2926652702668835  0.3573661411473026  0.5465322970226829  1.0000
  H   H4        1.0  0.1426134287568991  0.05823144615189757  0.4542284283635729  1.0000
  H   H5        1.0  0.2511783776489712  0.9138567312472489  0.40874936069228407  1.0000
  H   H6        1.0  0.3802245796424102  0.9871737092840286  0.43298390843174706  1.0000
  H   H7        1.0  0.4012219406647278  0.3171586635831276  0.6840997336317887  1.0000
  H   H8        1.0  0.5295805237030562  0.3925338565158638  0.7062378490756045  1.0000
  C   C15       1.0  0.9020881396964248  0.997280431461771  0.5544710233356098  1.0000
  C   C16       1.0  0.8934199856399943  0.006991302799999044  0.4186037248997829  1.0000
  C   C17       1.0  0.8881994227889529  0.8947424764640434  0.3502566826849538  1.0000
  C   C18       1.0  0.8934573033586267  0.7717216245378142  0.41891428453559554  1.0000
  C   C19       1.0  0.9021894649643293  0.7600084283013012  0.5547104043061601  1.0000
  C   C20       1.0  0.9062576676346245  0.8733967490633155  0.6217435746288029  1.0000
  C   C21       1.0  0.8798299083300392  0.9048313355504237  0.20662254085000487  1.0000
  O   O1        1.0  0.9106198064676844  0.8183394899688168  0.14214293445985127  1.0000
  C   C22       1.0  0.8365224478943704  0.012959413860120561  0.1361427694468338  1.0000
  C   C23       1.0  0.857509833401705  0.05713683644997847  0.008683106100316751  1.0000
  C   C24       1.0  0.8168687124080943  0.15808257400794545  0.9398943353004201  1.0000
  O   O2        1.0  0.8408427086008807  0.19876572367064393  0.8134355928583896  1.0000
  C   C25       1.0  0.8050251773533219  0.2999558336418  0.732520949640397  1.0000
  C   C26       1.0  0.753854118421601  0.21492205527548802  0.9993119673144686  1.0000
  C   C27       1.0  0.7320953097806703  0.17049149397844943  0.12526579522091175  1.0000
  C   C28       1.0  0.7728696819234316  0.06982081332025558  0.1933003789121961  1.0000
  H   H9        1.0  0.9195922527423852  0.18624014785609688  0.8106248169916375  1.0000
  H   H10       1.0  0.8915550146309694  0.10201912098273391  0.36559769513446305  1.0000
  H   H11       1.0  0.8899984601380665  0.6850301623309087  0.3662389528045773  1.0000
  H   H12       1.0  0.9129406628107639  0.8651065546575981  0.7264872993135463  1.0000
  H   H13       1.0  0.9061688462082552  0.4280318470726026  0.606742464099217  1.0000
  H   H14       1.0  0.906079269871855  0.013943441208142726  0.9625937847622281  1.0000
  H   H15       1.0  0.8356626794598982  0.3116039898325851  0.6381935543137898  1.0000
  H   H16       1.0  0.8061362094914368  0.393355439069635  0.7795269751087277  1.0000
  H   H17       1.0  0.74614858868582  0.27451445991981926  0.7136200366636225  1.0000
  H   H18       1.0  0.72121762588653  0.29297269493219313  0.9488992584499893  1.0000
  H   H19       1.0  0.6832418318666138  0.21385986967035597  0.1701374706126284  1.0000
  H   H20       1.0  0.7541375752192664  0.03555114908923951  0.2899608930752622  1.0000
  C   C29       1.0  0.9021041536003397  0.3786740708400522  0.17319016597650183  1.0000
  C   C30       1.0  0.9431555696629071  0.49359406181323284  0.1626044885777087  1.0000
  C   C31       1.0  0.9631599705794673  0.5525421878799475  0.04002428273916969  1.0000
  C   C32       1.0  0.943158561867353  0.49364278169746134  0.9273604306417389  1.0000
  C   C33       1.0  0.9021734219156711  0.3786147556682955  0.9359912407290265  1.0000
  C   C34       1.0  0.8817337500319877  0.32204909810239335  0.059327300811056416  1.0000
  C   C35       1.0  0.007119092392752213  0.6732276164142468  0.02873731442254046  1.0000
  O   O3        1.0  0.05406335140461005  0.6893458812335453  0.9367067504774216  1.0000
  C   C36       1.0  0.9978240975186511  0.7756194403456826  0.1217957052609373  1.0000
  C   C37       1.0  0.9275445317652855  0.801524029045791  0.17953925608119325  1.0000
  C   C38       1.0  0.9191540514097125  0.8994241810988339  0.2663935459309268  1.0000
  N   N3        1.0  0.8476317460857038  0.924665281423056  0.3251230055118488  1.0000
  C   C39       1.0  0.9811552955804396  0.9727375257304265  0.29490472344228835  1.0000
  C   C40       1.0  0.05084311686415166  0.9488116404541542  0.23671114508114255  1.0000
  C   C41       1.0  0.05919034486971153  0.8512252102163873  0.15023439350791334  1.0000
  H   H21       1.0  0.8255326928734915  0.16047099931706055  0.40061736126367276  1.0000
  H   H22       1.0  0.9603182299917774  0.5366267809275891  0.24991242705391303  1.0000
  H   H23       1.0  0.9590083457905764  0.5384138795130782  0.8327357165084202  1.0000
  H   H24       1.0  0.8500940923076609  0.23346395983713153  0.06673510446035968  1.0000
  H   H25       1.0  0.825004051788868  0.16101900990298024  0.7450107860136277  1.0000
  H   H26       1.0  0.8790640275580581  0.7468139391739232  0.1561902615510513  1.0000
  H   H27       1.0  0.8010396028251837  0.8706008849906628  0.3045615032460476  1.0000
  H   H28       1.0  0.8407580842365636  0.9975097758234159  0.3897345780825445  1.0000
  H   H29       1.0  0.975392677732306  0.0486253439185278  0.3617462984376243  1.0000
  H   H30       1.0  0.09852137980705389  0.006019576421813166  0.25866605441810564  1.0000
  H   H31       1.0  0.11376542311336402  0.8339941936629982  0.10642779460357588  1.0000
  Zn  Zn1       1.0  0.8198202952191994  0.3825469187391075  0.5558015521857973  1.0000
  Zn  Zn2       1.0  0.9844501083468367  0.3747416467472331  0.5533793658586301  1.0000
  C   C42       1.0  0.9021579817036833  0.3734523857573304  0.7918039072346896  1.0000
  C   C43       1.0  0.90211421984404  0.3838377331056566  0.3173771123507989  1.0000
  C   C44       1.0  0.9021659689717854  0.6158371780767513  0.5494895976285334  1.0000
  C   C45       1.0  0.9021061761983153  0.1414513831413824  0.5596914915381876  1.0000
  O   O4        1.0  0.9645937535212257  0.38260297954677847  0.36484835985215347  1.0000
  O   O5        1.0  0.964628666751696  0.36876213878245645  0.742493902172096  1.0000
  O   O6        1.0  0.9646342744859061  0.5644909637794766  0.5468233955664883  1.0000
  O   O7        1.0  0.9645880896024001  0.18687416651096234  0.5605187699044623  1.0000
  O   O8        1.0  0.8396822577835602  0.570414401640349  0.5486621489597077  1.0000
  O   O9        1.0  0.8396766502468962  0.37468713695315237  0.7443325868038246  1.0000
  O   O10       1.0  0.8396417369185369  0.38852793258050977  0.3666854829387831  1.0000
  O   O11       1.0  0.8396360730042506  0.19279911024846008  0.5623559903641333  1.0000
