data_image0
_chemical_formula_structural       NC8NC6H8C7OC3OC4H12C7OC3OC4H12Zn2C4O8
_chemical_formula_sum              "N2 C46 H32 O12 Zn2"
_cell_length_a       17.457602349358154
_cell_length_b       10.299371110280156
_cell_length_c       10.299374482448636
_cell_angle_alpha    85.56563777426875
_cell_angle_beta     92.85818479457473
_cell_angle_gamma    91.70033728131911

_space_group_name_H-M_alt    "P 1"
_space_group_IT_number       1

loop_
  _space_group_symop_operation_xyz
  'x, y, z'

loop_
  _atom_site_type_symbol
  _atom_site_label
  _atom_site_symmetry_multiplicity
  _atom_site_fract_x
  _atom_site_fract_y
  _atom_site_fract_z
  _atom_site_occupancy
  N   N1        1.0  0.7228778930626554  0.4531708595133639  0.6269512208506396  1.0000
  C   C1        1.0  0.6617957132063642  0.4072478960783128  0.6163202594139607  1.0000
  C   C2        1.0  0.5858068974283172  0.3501254416944153  0.6031048874189344  1.0000
  C   C3        1.0  0.5272697543189246  0.39026959894312485  0.6780172984716433  1.0000
  C   C4        1.0  0.4527191939159367  0.3352652734476034  0.6654170700134356  1.0000
  C   C5        1.0  0.3905906344653386  0.3776515338784754  0.7447521126784475  1.0000
  C   C6        1.0  0.31605686665779215  0.39613341940731983  0.6889934427622761  1.0000
  C   C7        1.0  0.2575196756549604  0.4360936241404527  0.7640137497011394  1.0000
  C   C8        1.0  0.1815482475399937  0.4551818976162372  0.7060397693064693  1.0000
  N   N2        1.0  0.1204801349499253  0.47052248971699484  0.6594288380351441  1.0000
  C   C9        1.0  0.2730240279442032  0.45781496447415404  0.8953013345274248  1.0000
  C   C10       1.0  0.3467730722341515  0.4397219751899504  0.9514477380038364  1.0000
  C   C11       1.0  0.4052985974202595  0.3999417162000438  0.8768852210398668  1.0000
  C   C12       1.0  0.4379945976793613  0.23943971044480317  0.5764712586763705  1.0000
  C   C13       1.0  0.49651998587069734  0.19957413907505406  0.5019589506006525  1.0000
  C   C14       1.0  0.5702856933554211  0.2546907090614363  0.5151091773806773  1.0000
  H   H1        1.0  0.5396115694659591  0.4654484396746612  0.7446740144192237  1.0000
  H   H2        1.0  0.3037288503097223  0.38118750544510216  0.5869618816727222  1.0000
  H   H3        1.0  0.2281562772763646  0.4886838270804632  0.9541485258267384  1.0000
  H   H4        1.0  0.3585876582664754  0.4562256489908283  0.05310653964233847  1.0000
  H   H5        1.0  0.4617735868454095  0.38493875759877416  0.9229877627537157  1.0000
  H   H6        1.0  0.3815057825101136  0.1941064275721347  0.5658043722945478  1.0000
  H   H7        1.0  0.4846923551863721  0.12551205429649137  0.4341042526133647  1.0000
  H   H8        1.0  0.6151532747854238  0.22295202042778395  0.4567728377603537  1.0000
  C   C15       1.0  0.921630977918723  0.0804731906791385  0.6430713000115311  1.0000
  C   C16       1.0  0.9128168398649872  0.08940984544729602  0.5063633366189428  1.0000
  C   C17       1.0  0.9075045921016631  0.9766924653237324  0.43750902501837863  1.0000
  C   C18       1.0  0.912854862653758  0.8541435464401061  0.5066775350374515  1.0000
  C   C19       1.0  0.9217343861546149  0.8432104644273258  0.6433206041447102  1.0000
  C   C20       1.0  0.925870191203503  0.9569615969496779  0.7107480883233082  1.0000
  C   C21       1.0  0.8989975978106767  0.9860358746334719  0.29306407012460056  1.0000
  O   O1        1.0  0.9304587547740161  0.9023860942092095  0.23160963247509936  1.0000
  C   C22       1.0  0.8547909693628417  0.09019355398439854  0.21834076382697898  1.0000
  C   C23       1.0  0.8762592167853906  0.1363222615440005  0.09294911610423995  1.0000
  C   C24       1.0  0.834775026692076  0.2335424936634063  0.020178264077647112  1.0000
  O   O2        1.0  0.8592929714397756  0.2764513877484376  0.8960804595973819  1.0000
  C   C25       1.0  0.8227380965532627  0.3743615747009712  0.81165780700137  1.0000
  C   C26       1.0  0.7704068850400486  0.28457760408174937  0.07340976734487015  1.0000
  C   C27       1.0  0.7481512677629354  0.23812507636354896  0.19722000866170242  1.0000
  C   C28       1.0  0.7897717466774768  0.14119228080067137  0.269249799699111  1.0000
  H   H9        1.0  0.9394349684135147  0.27099939028421427  0.9009239982659922  1.0000
  H   H10       1.0  0.9109270962897943  0.1842750869310148  0.453178133747274  1.0000
  H   H11       1.0  0.9093373378422  0.7671428906254497  0.45366664382304744  1.0000
  H   H12       1.0  0.9326657396059655  0.949268311254463  0.8161399515286556  1.0000
  H   H13       1.0  0.9257836726519247  0.5115910499955637  0.6957393354098087  1.0000
  H   H14       1.0  0.9258720018612538  0.09760272069870246  0.05162786646888762  1.0000
  H   H15       1.0  0.8540519557816536  0.3888428016751162  0.7203427613946878  1.0000
  H   H16       1.0  0.8238595799861177  0.4678554387994345  0.858769470783538  1.0000
  H   H17       1.0  0.7626176166972581  0.34350950129271207  0.7869823063741079  1.0000
  H   H18       1.0  0.7370920257880578  0.3596356978239321  0.01979893866560367  1.0000
  H   H19       1.0  0.6982487547106456  0.2769936839480289  0.23729583414129207  1.0000
  H   H20       1.0  0.7706152248383484  0.10518389007630646  0.364065745943277  1.0000
  C   C29       1.0  0.9217537613751563  0.46193241482861036  0.26181924056440287  1.0000
  C   C30       1.0  0.0018922414374804575  0.48009410659142815  0.2659985036042851  1.0000
  C   C31       1.0  0.04221515996959413  0.49072153592206336  0.15081118524097947  1.0000
  C   C32       1.0  0.001708850508684634  0.4800222321830332  0.030744652639677517  1.0000
  C   C33       1.0  0.921611584470233  0.46175121614985626  0.024572599186304167  1.0000
  C   C34       1.0  0.8820758378102463  0.4531521140279029  0.14065232103601466  1.0000
  C   C35       1.0  0.12692571607104197  0.5085444263753536  0.15519610315441268  1.0000
  O   O3        1.0  0.1645579332208409  0.4566444154123581  0.0724060037049501  1.0000
  C   C36       1.0  0.16894117387889862  0.5852597642586648  0.2534195480054977  1.0000
  C   C37       1.0  0.24378713233517035  0.551808062152646  0.2976859297773793  1.0000
  C   C38       1.0  0.28477593850030414  0.6238612446347804  0.38925957176756176  1.0000
  O   O4        1.0  0.3589980918804103  0.5852079374028001  0.4306023203844489  1.0000
  C   C39       1.0  0.4070748960009545  0.6491770369351704  0.5229412736858379  1.0000
  C   C40       1.0  0.2504947479459685  0.7317523433065309  0.4364085531312718  1.0000
  C   C41       1.0  0.17654471547112816  0.7665763636363527  0.391705220598213  1.0000
  C   C42       1.0  0.1359986823025443  0.6943094936728329  0.3004087049132804  1.0000
  H   H21       1.0  0.7706534693035046  0.42567724222411263  0.4614184463110782  1.0000
  H   H22       1.0  0.03313943735142777  0.48454975302043835  0.3591431463801793  1.0000
  H   H23       1.0  0.032779442042156326  0.48723377935471235  0.9418908497649636  1.0000
  H   H24       1.0  0.8202949245807396  0.4391499251564712  0.13662669885614664  1.0000
  H   H25       1.0  0.8909139887182557  0.45365195808359204  0.6948341925598425  1.0000
  H   H26       1.0  0.2703820868233606  0.4686561839528822  0.26195317190181044  1.0000
  H   H27       1.0  0.4622922189312493  0.598229295712198  0.5373934660480826  1.0000
  H   H28       1.0  0.3793710253651703  0.6461670775824249  0.6179124556539881  1.0000
  H   H29       1.0  0.41888366723264725  0.7516986119541551  0.48627652621941664  1.0000
  H   H30       1.0  0.2805665639770243  0.7895026929651059  0.5070737017149578  1.0000
  H   H31       1.0  0.15067035738690748  0.8502487411598019  0.4275259248868044  1.0000
  H   H32       1.0  0.07927062771141857  0.7245607816392454  0.26556111259628423  1.0000
  Zn  Zn1       1.0  0.8376173095526821  0.45817468064757394  0.6363310570983172  1.0000
  Zn  Zn2       1.0  0.005740700784692132  0.4655080181057183  0.650059631051968  1.0000
  C   C43       1.0  0.9216360532322068  0.45661165971272943  0.8803940878634353  1.0000
  C   C44       1.0  0.9217237932057553  0.4670727577299121  0.40599687820706065  1.0000
  C   C45       1.0  0.9217118489775484  0.6990379315530544  0.6380978652656635  1.0000
  C   C46       1.0  0.9216479398672214  0.22464492304894268  0.6482931648503136  1.0000
  O   O5        1.0  0.985515685636388  0.4715752013011987  0.4595941308955098  1.0000
  O   O6        1.0  0.9854459245730643  0.4576740699445052  0.8372161309743533  1.0000
  O   O7        1.0  0.9855062702634838  0.6534363125177678  0.6415601471487598  1.0000
  O   O8        1.0  0.9854552825962526  0.27581296553903223  0.655250012662852  1.0000
  O   O9        1.0  0.8579026703688609  0.6478697307131671  0.6311406707957137  1.0000
  O   O10       1.0  0.8578423248993732  0.45210904847945543  0.8267965858841073  1.0000
  O   O11       1.0  0.8579120862986167  0.4660101349527559  0.4491730243620704  1.0000
  O   O12       1.0  0.8578516832359363  0.2702478898784004  0.6448290034959452  1.0000
