data_image0
_chemical_formula_structural       NC12NC2H8C7OC6H10C7OC6H10Zn2C4O8
_chemical_formula_sum              "N2 C44 H28 O10 Zn2"
_cell_length_a       19.240039667572717
_cell_length_b       10.299379429549807
_cell_length_c       10.299382801718286
_cell_angle_alpha    85.54943384292815
_cell_angle_beta     89.98040902502626
_cell_angle_gamma    89.99618039744932

_space_group_name_H-M_alt    "P 1"
_space_group_IT_number       1

loop_
  _space_group_symop_operation_xyz
  'x, y, z'

loop_
  _atom_site_type_symbol
  _atom_site_label
  _atom_site_symmetry_multiplicity
  _atom_site_fract_x
  _atom_site_fract_y
  _atom_site_fract_z
  _atom_site_occupancy
  N   N1        1.0  0.6546887073496945  0.42109668241707476  0.5669496364755804  1.0000
  C   C1        1.0  0.5945403385444198  0.4210967663883478  0.5669495545090464  1.0000
  C   C2        1.0  0.5197223014242107  0.4210968836559319  0.5669494171629985  1.0000
  C   C3        1.0  0.4832319556932088  0.35664662505673816  0.6703841702653368  1.0000
  C   C4        1.0  0.4105611957022459  0.35653575298866946  0.6704707514581465  1.0000
  C   C5        1.0  0.3733900665252564  0.4210969761850598  0.5669491894485166  1.0000
  C   C6        1.0  0.4105946156932113  0.48565838641439596  0.46342782191445653  1.0000
  C   C7        1.0  0.483265292251938  0.48554727885520554  0.46351452569040075  1.0000
  C   C8        1.0  0.2961849761058959  0.4210968975018179  0.5669490940602879  1.0000
  C   C9        1.0  0.2589935379016986  0.30783701154108356  0.6088593227890329  1.0000
  C   C10       1.0  0.1863228624254618  0.30794390147997497  0.6087679599885987  1.0000
  C   C11       1.0  0.14985268917615158  0.42109676833235876  0.5669491550156396  1.0000
  C   C12       1.0  0.0750346519797365  0.4210966546280137  0.5669494037164282  1.0000
  N   N2        1.0  0.0148863350909428  0.42109661383997943  0.5669496121503159  1.0000
  C   C13       1.0  0.186330026790434  0.5342497110072351  0.5251302971254439  1.0000
  C   C14       1.0  0.2590007359395565  0.534356781048178  0.5250387716674774  1.0000
  H   H1        1.0  0.5109338209280155  0.3067479562359967  0.751142940094913  1.0000
  H   H2        1.0  0.38345465559940517  0.30743541949318565  0.7523447520838646  1.0000
  H   H3        1.0  0.3835146250162671  0.5347587469546657  0.3815537704308125  1.0000
  H   H4        1.0  0.5109931984333038  0.5354458474576507  0.38275603169157946  1.0000
  H   H5        1.0  0.2860842838059778  0.21868199600812988  0.6400580130075806  1.0000
  H   H6        1.0  0.1586052700664415  0.21968830723741695  0.6409993056371521  1.0000
  H   H7        1.0  0.1586177956998752  0.6225052807141254  0.4928989660358869  1.0000
  H   H8        1.0  0.28609646885786166  0.623511875754311  0.4938400366497706  1.0000
  C   C15       1.0  0.8347984145314182  0.03970478416002887  0.5671036731093271  1.0000
  C   C16       1.0  0.8769094561568304  0.02983791757031562  0.678848880447525  1.0000
  C   C17       1.0  0.8974974100467128  0.9076222619092124  0.7360611001496231  1.0000
  C   C18       1.0  0.8768249083840148  0.7946157913301726  0.6785725990736811  1.0000
  C   C19       1.0  0.8347833042424642  0.8024785539404318  0.5668067666490728  1.0000
  C   C20       1.0  0.8138629287919397  0.9254972369861959  0.5119177323634707  1.0000
  C   C21       1.0  0.9425672875436052  0.8971202595354115  0.8532581501033325  1.0000
  O   O1        1.0  0.9866580677133282  0.8063362254392805  0.8656142949435377  1.0000
  C   C22       1.0  0.9376151248802609  0.9895060410047926  0.9564425309784483  1.0000
  C   C23       1.0  0.9970521584369538  0.018984720939449806  0.02800490672439604  1.0000
  C   C24       1.0  0.9927294139940239  0.10476348458963014  0.12649681306549143  1.0000
  C   C25       1.0  0.9290577109781444  0.16106270641689147  0.15525494511166693  1.0000
  C   C26       1.0  0.8695137137396686  0.13127559524063015  0.0859366599528163  1.0000
  C   C27       1.0  0.873557369402123  0.04557646741200472  0.9873570870523773  1.0000
  H   H9        1.0  0.7562095925175298  0.2657342749755496  0.35507306868118715  1.0000
  H   H10       1.0  0.8943848227082328  0.11743403212433279  0.7206857187147284  1.0000
  H   H11       1.0  0.8930872744188643  0.7003228354988293  0.7220096313841924  1.0000
  H   H12       1.0  0.7813988165276449  0.9322997545897441  0.4257699939259374  1.0000
  H   H13       1.0  0.819116661172235  0.47809143456104414  0.5232393480136384  1.0000
  H   H14       1.0  0.046916013525516664  0.976535469738622  0.006957647546809609  1.0000
  H   H15       1.0  0.03879137142840339  0.1275441780809674  0.18059265773431532  1.0000
  H   H16       1.0  0.9258064181805351  0.2273479845969002  0.23159565073827837  1.0000
  H   H17       1.0  0.8200967222504042  0.17416398051299464  0.10898373685151963  1.0000
  H   H18       1.0  0.8265349908699311  0.022111497437235395  0.9364209759441331  1.0000
  C   C28       1.0  0.8348601905143067  0.4210184362263405  0.18558546470065496  1.0000
  C   C29       1.0  0.9078773953693818  0.4218819429875684  0.1842814634631882  1.0000
  C   C30       1.0  0.944705232384063  0.4208293059566197  0.06656622591083439  1.0000
  C   C31       1.0  0.9077080288783212  0.4219099814076077  0.9490358838859354  1.0000
  C   C32       1.0  0.8347214964565014  0.42116490044133914  0.9483249418692599  1.0000
  C   C33       1.0  0.7987209574474161  0.4203787077591412  0.06716568858595684  1.0000
  C   C34       1.0  0.0218018821873589  0.4231250915069209  0.06493682985136529  1.0000
  O   O2        1.0  0.0524239734869818  0.48383755264422645  0.9703863404262751  1.0000
  C   C35       1.0  0.06415947324133797  0.3565379531391293  0.17046890479380417  1.0000
  C   C36       1.0  0.12948558988375103  0.4070007199918231  0.2015506727716614  1.0000
  C   C37       1.0  0.17014801062977103  0.34406311285177815  0.29982957270590527  1.0000
  C   C38       1.0  0.14633548490406967  0.22975278160160117  0.367238005772349  1.0000
  C   C39       1.0  0.08193102635839744  0.17784296612260553  0.3361337819376806  1.0000
  C   C40       1.0  0.041070620251710155  0.24040183853514852  0.23795709014811672  1.0000
  H   H19       1.0  0.6970657548745645  0.4214006828539869  0.3952100706976751  1.0000
  H   H20       1.0  0.9361919604506648  0.4248325881358286  0.2748791555527341  1.0000
  H   H21       1.0  0.9360297838593578  0.4220813376005814  0.8580843307383814  1.0000
  H   H22       1.0  0.7424301939816715  0.41971380786301027  0.06736673967925166  1.0000
  H   H23       1.0  0.8066832679491891  0.4219837162927904  0.6205095884580993  1.0000
  H   H24       1.0  0.14877981047147704  0.4956790047566224  0.15058067757394777  1.0000
  H   H25       1.0  0.2201769706791401  0.38394921105550206  0.3236867338096978  1.0000
  H   H26       1.0  0.17790953201985382  0.18112263787238447  0.4432003233805082  1.0000
  H   H27       1.0  0.06376812604410209  0.08870874554903918  0.38773271642906604  1.0000
  H   H28       1.0  0.99187628527757  0.19723337716711176  0.21391498526093633  1.0000
  Zn  Zn1       1.0  0.7586339698976113  0.4210931966542104  0.5669571192479028  1.0000
  Zn  Zn2       1.0  0.9109410895971362  0.42108950752009755  0.5669527324248891  1.0000
  C   C41       1.0  0.8347462855973279  0.41596321919943047  0.8041528960923434  1.0000
  C   C42       1.0  0.8348304370307847  0.42622112367729037  0.329757082361432  1.0000
  C   C43       1.0  0.8347835200230171  0.6582970735567921  0.5616877122210906  1.0000
  C   C44       1.0  0.8347931506516538  0.1838857089379773  0.5722223360803256  1.0000
  O   O3        1.0  0.892620209772935  0.42796012702331954  0.378140731701343  1.0000
  O   O4        1.0  0.8925540926476402  0.4142204360327084  0.7557655437897715  1.0000
  O   O5        1.0  0.8925833805033895  0.6099080884343198  0.5599731918291377  1.0000
  O   O6        1.0  0.8925908699626016  0.2322724838950505  0.5739329862849738  1.0000
  O   O7        1.0  0.7769841375572021  0.6099102202819289  0.5599768653824835  1.0000
  O   O8        1.0  0.7769548496799508  0.41422412826493904  0.7557691474901425  1.0000
  O   O9        1.0  0.777020967136233  0.42796377369704897  0.3781427740151839  1.0000
  O   O10       1.0  0.77699162730554  0.2322761212981086  0.5739351259704835  1.0000
