data_image0
_chemical_formula_structural       NC12NC2H8C7OC4NC3H9C7OC6H10Zn2C4O8
_chemical_formula_sum              "N3 C45 H27 O10 Zn2"
_cell_length_a       17.80743265337812
_cell_length_b       10.299371701877257
_cell_length_c       10.299382801718286
_cell_angle_alpha    85.59153606020502
_cell_angle_beta     91.51478421497153
_cell_angle_gamma    89.44495547056904

_space_group_name_H-M_alt    "P 1"
_space_group_IT_number       1

loop_
  _space_group_symop_operation_xyz
  'x, y, z'

loop_
  _atom_site_type_symbol
  _atom_site_label
  _atom_site_symmetry_multiplicity
  _atom_site_fract_x
  _atom_site_fract_y
  _atom_site_fract_z
  _atom_site_occupancy
  N   N1        1.0  0.7078312829454293  0.4063742530259147  0.6018924124016809  1.0000
  C   C1        1.0  0.6570275067726633  0.4359177526444644  0.53320635018269  1.0000
  C   C2        1.0  0.5938225925728652  0.47266772249566746  0.4477695357803131  1.0000
  C   C3        1.0  0.6055787831918956  0.5266602051429545  0.3211729733730071  1.0000
  C   C4        1.0  0.5442806150507491  0.5619071173812653  0.2381315212920001  1.0000
  C   C5        1.0  0.4710721051525763  0.5434248644340463  0.28102684353230956  1.0000
  C   C6        1.0  0.4583390404739906  0.4893136833407905  0.40809149321704896  1.0000
  C   C7        1.0  0.520494528167293  0.4540700213141373  0.4911164352055404  1.0000
  C   C8        1.0  0.380561668553723  0.4697179409940606  0.4538466249880322  1.0000
  C   C9        1.0  0.3617547538067654  0.4969329297014995  0.580898425724865  1.0000
  C   C10       1.0  0.2885162945328814  0.4784922592946548  0.6238343256788377  1.0000
  C   C11       1.0  0.23314159873012194  0.4325825163468171  0.5405562786918916  1.0000
  C   C12       1.0  0.15776621761904444  0.4135893342612802  0.5848928660952941  1.0000
  N   N2        1.0  0.0971697489585763  0.39832009323089634  0.6205364322955451  1.0000
  C   C13       1.0  0.25125690227168634  0.4051987369870207  0.4140473716217625  1.0000
  C   C14       1.0  0.32444255553892415  0.42365413524543927  0.3708555959157711  1.0000
  H   H1        1.0  0.6620523435367764  0.5414762474261612  0.2867423413943142  1.0000
  H   H2        1.0  0.5535010775484646  0.6039822471353509  0.14037052149768048  1.0000
  H   H3        1.0  0.4244479104688129  0.5730456735768255  0.2154486871498329  1.0000
  H   H4        1.0  0.5119723370934578  0.41060955129491816  0.5887524697457456  1.0000
  H   H5        1.0  0.4034225992065655  0.5341270855847  0.646484101956635  1.0000
  H   H6        1.0  0.27505684762403054  0.5003599740526641  0.7218492764675368  1.0000
  H   H7        1.0  0.2088722244271363  0.3692719596003222  0.3488751186433261  1.0000
  H   H8        1.0  0.3373734023818249  0.4002509376179082  0.2731433948160218  1.0000
  C   C15       1.0  0.9024648418406725  0.02097746450092841  0.6110857016771061  1.0000
  C   C16       1.0  0.9061419296611174  0.030217137780259584  0.4745994625688763  1.0000
  C   C17       1.0  0.9071435274418976  0.9177260953484034  0.40565634146819973  1.0000
  C   C18       1.0  0.9061511602086999  0.794948689490122  0.47491729448502507  1.0000
  C   C19       1.0  0.9025433798148205  0.7837067465940035  0.6113546696306633  1.0000
  C   C20       1.0  0.9005234419170143  0.8973262457103001  0.6786241525039893  1.0000
  C   C21       1.0  0.9118152514460824  0.9273224847449595  0.2616327809412369  1.0000
  O   O1        1.0  0.9479836956801422  0.840817344748503  0.208419919757465  1.0000
  C   C22       1.0  0.8754434815053214  0.034973100414670055  0.1779804284756008  1.0000
  C   C23       1.0  0.9076420962660974  0.07892922702863836  0.05955428786272887  1.0000
  C   C24       1.0  0.8732510534513369  0.17952938236196125  0.97911813003673  1.0000
  C   C25       1.0  0.9069075340148245  0.22463899931334375  0.8585756932326736  1.0000
  N   N3        1.0  0.9339658434281123  0.2608975361995052  0.7616772161686267  1.0000
  C   C26       1.0  0.8061007184997162  0.236104325504513  0.01607363396088113  1.0000
  C   C27       1.0  0.7732682658855722  0.1919503639320399  0.13272990533485518  1.0000
  C   C28       1.0  0.8074436103069071  0.09165214303153024  0.21314433676536093  1.0000
  H   H9        1.0  0.8966810141897833  0.21083222458396733  0.8687918876206195  1.0000
  H   H10       1.0  0.9090727192788411  0.12507050890087146  0.4218541781888028  1.0000
  H   H11       1.0  0.9074800833250493  0.708073918397439  0.4219696686974086  1.0000
  H   H12       1.0  0.8976890868701368  0.8893992326358021  0.7838453344968908  1.0000
  H   H13       1.0  0.9017897378857519  0.45191461905028746  0.6638428622809835  1.0000
  H   H14       1.0  0.9597472024615146  0.03575438345651616  0.030473112618021325  1.0000
  H   H15       1.0  0.7790303822409717  0.3138694661431025  0.9545389802117792  1.0000
  H   H16       1.0  0.7210351098715753  0.23514382953847157  0.16065196426836037  1.0000
  H   H17       1.0  0.780284651683038  0.05752067892849366  0.301998431339799  1.0000
  C   C29       1.0  0.9025790432396135  0.4022673411394049  0.22985396262845192  1.0000
  C   C30       1.0  0.9815036150985699  0.4014981179271626  0.23233001561240108  1.0000
  C   C31       1.0  0.021310777798888125  0.3996220649369644  0.11652022620770186  1.0000
  C   C32       1.0  0.9813205499567332  0.40152994176905143  0.9970756903569495  1.0000
  C   C33       1.0  0.9024291467310804  0.4024168979795204  0.9925863697183606  1.0000
  C   C34       1.0  0.8635159836327058  0.4024357307005151  0.10956312367333498  1.0000
  C   C35       1.0  0.10464500921941489  0.40019381919522523  0.11888310281553416  1.0000
  O   O2        1.0  0.13775204943238184  0.4602179986930086  0.02596273285351125  1.0000
  C   C36       1.0  0.1504211446154875  0.33266346722976037  0.22655816464108347  1.0000
  C   C37       1.0  0.2210385706887159  0.38166256546857946  0.26105873816330427  1.0000
  C   C38       1.0  0.2649828465317514  0.3178194347442793  0.3613955931637496  1.0000
  C   C39       1.0  0.23922961491427253  0.20404826962970035  0.4274865568194868  1.0000
  C   C40       1.0  0.16960823121179258  0.15358159928922333  0.3930101580071441  1.0000
  C   C41       1.0  0.12544990543078582  0.21705044452081346  0.2927649819586935  1.0000
  H   H18       1.0  0.753636768771234  0.4057306763762851  0.43234653293977954  1.0000
  H   H19       1.0  0.012109260536343758  0.40381547046613586  0.32439547794678236  1.0000
  H   H20       1.0  0.01193362128712705  0.40106800780953367  0.907590214918387  1.0000
  H   H21       1.0  0.8026710853965786  0.40302954254906376  0.10685003836329043  1.0000
  H   H22       1.0  0.8721226629745191  0.40386260612332814  0.6633203496753395  1.0000
  H   H23       1.0  0.24190476780267267  0.46990421964174245  0.211153300653792  1.0000
  H   H24       1.0  0.31906422538366264  0.35658453296128645  0.3878719129054524  1.0000
  H   H25       1.0  0.2733520263783742  0.15471497990230687  0.5050470388057762  1.0000
  H   H26       1.0  0.14996482407109246  0.06485873953696242  0.44360275389431747  1.0000
  H   H27       1.0  0.07227026648126422  0.1749845135257282  0.2661444806950344  1.0000
  Zn  Zn1       1.0  0.820185955573652  0.40404653066974183  0.6072801594669162  1.0000
  Zn  Zn2       1.0  0.9848150706642745  0.40063722418464365  0.6151592744709118  1.0000
  C   C42       1.0  0.9024552943878893  0.39721496793613187  0.8484117427960958  1.0000
  C   C43       1.0  0.9025475297385331  0.4074703883364341  0.37402790522482565  1.0000
  C   C44       1.0  0.9025256825250813  0.6395337577406444  0.6061285121358848  1.0000
  C   C45       1.0  0.9024770852506674  0.16515003940329898  0.6163112018843544  1.0000
  O   O3        1.0  0.9650128441413551  0.40791709871061066  0.4254040784890658  1.0000
  O   O4        1.0  0.9649396690530034  0.39417969302807765  0.8030152613206845  1.0000
  O   O5        1.0  0.9649956658937378  0.58985519804058  0.6073697985363726  1.0000
  O   O6        1.0  0.964956791143945  0.2122416041326214  0.6210494412140648  1.0000
  O   O7        1.0  0.8400441789141461  0.5924421518866059  0.6013899900281767  1.0000
  O   O8        1.0  0.8399881822442499  0.3967682071675669  0.7970353841175859  1.0000
  O   O9        1.0  0.8400613576847002  0.41050556728687293  0.4194226398827252  1.0000
  O   O10       1.0  0.8400053046641299  0.21483006343921218  0.6150680999714517  1.0000
