data_image0
_chemical_formula_structural       NC10NC5H10C6SCOC6H10C6NCOC6H11Zn2C4O8
_chemical_formula_sum              "N3 C45 H31 S1 O10 Zn2"
_cell_length_a       19.4436361288709
_cell_length_b       10.302038109246572
_cell_length_c       10.299662537453274
_cell_angle_alpha    85.5465134691658
_cell_angle_beta     89.69093770751046
_cell_angle_gamma    89.43651638143119

_space_group_name_H-M_alt    "P 1"
_space_group_IT_number       1

loop_
  _space_group_symop_operation_xyz
  'x, y, z'

loop_
  _atom_site_type_symbol
  _atom_site_label
  _atom_site_symmetry_multiplicity
  _atom_site_fract_x
  _atom_site_fract_y
  _atom_site_fract_z
  _atom_site_occupancy
  N   N1        1.0  0.6480624907706906  0.4095072244040554  0.5622701180696072  1.0000
  C   C1        1.0  0.589227285254446  0.4193987398001586  0.5766558589570301  1.0000
  C   C2        1.0  0.5158989080913611  0.4317347558406861  0.5946503798049059  1.0000
  C   C3        1.0  0.4737159188668574  0.39979806486944836  0.49996989666279057  1.0000
  C   C4        1.0  0.39781263808041334  0.4102308464117461  0.505299625739202  1.0000
  C   C5        1.0  0.3580620958699545  0.38542977632960485  0.6123707217541625  1.0000
  C   C6        1.0  0.2819430666164967  0.38935260499689184  0.5994116399995189  1.0000
  C   C7        1.0  0.2413834715901245  0.44694790246870575  0.6931928303780304  1.0000
  C   C8        1.0  0.1697213845538363  0.45059059756719777  0.6826492379830849  1.0000
  C   C9        1.0  0.1376240517617585  0.3962419223574818  0.5786109296971111  1.0000
  C   C10       1.0  0.0638327406449558  0.399945931616956  0.5679120609737862  1.0000
  N   N2        1.0  0.0045095314956648  0.4029237606169229  0.5593108798501845  1.0000
  C   C11       1.0  0.1774586124321964  0.33793949574462023  0.4852128783518985  1.0000
  C   C12       1.0  0.2491371364157576  0.3342427292994934  0.4955046798994571  1.0000
  C   C13       1.0  0.3861793389759982  0.3449063819281346  0.7434622179993222  1.0000
  C   C14       1.0  0.4448469117726382  0.3879915233209885  0.7907120894868449  1.0000
  C   C15       1.0  0.4890756183981743  0.4858668549094718  0.7163574792735237  1.0000
  H   H1        1.0  0.4958161969738151  0.37073810561917186  0.4096568395990108  1.0000
  H   H2        1.0  0.3731242485798693  0.43277155306166804  0.41214258179820007  1.0000
  H   H3        1.0  0.26525565435360227  0.4901834049538969  0.774049281412893  1.0000
  H   H4        1.0  0.1393791733961439  0.4958537178678635  0.7555783509209126  1.0000
  H   H5        1.0  0.1531145570532118  0.29489941753612925  0.40469094633897584  1.0000
  H   H6        1.0  0.2788133110914909  0.2867363852535696  0.42327158424546907  1.0000
  H   H7        1.0  0.3551988448101667  0.28066952083458063  0.8077010450425282  1.0000
  H   H8        1.0  0.4599845547775293  0.3538784482112254  0.8886436161121161  1.0000
  H   H9        1.0  0.4589834123505696  0.576572812370489  0.6911184000109643  1.0000
  H   H10       1.0  0.5323606992142028  0.5114116377477489  0.7794475916720711  1.0000
  C   C16       1.0  0.8262241633233952  0.024938216264834168  0.5607508768569869  1.0000
  C   C17       1.0  0.7674366611374916  0.0308232129206234  0.4817182519654015  1.0000
  C   C18       1.0  0.7385100227927343  0.9167870364136435  0.4419082870818509  1.0000
  C   C19       1.0  0.7676578888070645  0.7956865487140706  0.4816624084520036  1.0000
  C   C20       1.0  0.8263544564733093  0.7874826731862486  0.5608413708289905  1.0000
  C   C21       1.0  0.8553702983813779  0.9027668078685912  0.5998896941908998  1.0000
  S   S1        1.0  0.6638897666085402  0.9257384435571269  0.33991727031198216  1.0000
  C   C22       1.0  0.714473900907963  0.9333532320017075  0.1930733214683895  1.0000
  O   O1        1.0  0.7310635135737654  0.827796368863925  0.14658490638013988  1.0000
  C   C23       1.0  0.7371652023147438  0.05912472367431931  0.12738647804898107  1.0000
  C   C24       1.0  0.7858053971135801  0.060603454359559494  0.025474730617013108  1.0000
  C   C25       1.0  0.8079178238132424  0.1785542275129759  0.9635672040882879  1.0000
  C   C26       1.0  0.781762274731261  0.2962598720647889  0.0022861475287108135  1.0000
  C   C27       1.0  0.7333290921597259  0.2962504054708883  0.10284311353412834  1.0000
  C   C28       1.0  0.7109873755680488  0.17860738554909417  0.1650727206318532  1.0000
  H   H11       1.0  0.9369520439782868  0.22115112292588268  0.7098875365482251  1.0000
  H   H12       1.0  0.7440407185464514  0.12378906143560675  0.45063625072995994  1.0000
  H   H13       1.0  0.7444835853328424  0.7083749522857992  0.45009002935588316  1.0000
  H   H14       1.0  0.9006916174263022  0.8973095713650399  0.6608152511867804  1.0000
  H   H15       1.0  0.8487908658344706  0.4570469406201383  0.5906220993995299  1.0000
  H   H16       1.0  0.8070852149887208  0.9706576114736287  0.9940000581143047  1.0000
  H   H17       1.0  0.8454455938576255  0.1786436080837086  0.8855569705926958  1.0000
  H   H18       1.0  0.7989598102324519  0.38746455904215393  0.9542684242110915  1.0000
  H   H19       1.0  0.7129508953445832  0.38756314150775406  0.13254962243412383  1.0000
  H   H20       1.0  0.6730568490819036  0.1819135754311545  0.2419539440950309  1.0000
  C   C29       1.0  0.8263366678792613  0.4063500578597823  0.17941975162519275  1.0000
  C   C30       1.0  0.8965523123249444  0.43742002278945513  0.17502672813584041  1.0000
  C   C31       1.0  0.9321257225192641  0.4511846192394626  0.05612846742097144  1.0000
  C   C32       1.0  0.8964319087598833  0.43711224751157274  0.9398843939282027  1.0000
  C   C33       1.0  0.8262419487651901  0.4060708055574265  0.9421724605656694  1.0000
  C   C34       1.0  0.7916492573792223  0.39041945208984496  0.06250471850310202  1.0000
  N   N3        1.0  0.003752858088576616  0.4849388749704904  0.05505446014982174  1.0000
  C   C35       1.0  0.05242379694437105  0.44419943455626987  0.9604326118855586  1.0000
  O   O2        1.0  0.03986241926073575  0.34589680650371313  0.898973548579562  1.0000
  C   C36       1.0  0.11847093456107993  0.5132914507392139  0.9375422993472946  1.0000
  C   C37       1.0  0.1267904284654413  0.6411774066887201  0.9738424162394699  1.0000
  C   C38       1.0  0.1891973930084343  0.7055646272099672  0.9511415955160696  1.0000
  C   C39       1.0  0.24378516628269065  0.6435439906697598  0.8917062537275156  1.0000
  C   C40       1.0  0.23602402218518925  0.5170937594332488  0.854395707148583  1.0000
  C   C41       1.0  0.17373424906936163  0.45224745161405444  0.8767664206340777  1.0000
  H   H21       1.0  0.6937281710602287  0.3489504898956932  0.3948783338926143  1.0000
  H   H22       1.0  0.9241111030008423  0.450127030934115  0.2642198996173215  1.0000
  H   H23       1.0  0.9230741073008406  0.45258027899529996  0.8475519280916455  1.0000
  H   H24       1.0  0.737523080859878  0.3664510231692957  0.06502711223898272  1.0000
  H   H25       1.0  0.7990953078235664  0.3958477223361294  0.6154729684598319  1.0000
  H   H26       1.0  0.0225316490628511  0.5317845714160407  0.13382681708509492  1.0000
  H   H27       1.0  0.08500807192309678  0.6924722525161071  0.017969207656319375  1.0000
  H   H28       1.0  0.1951308857920302  0.8039110366241462  0.9792200110975324  1.0000
  H   H29       1.0  0.29202019972094795  0.69361904931731  0.8741944140399474  1.0000
  H   H30       1.0  0.2783153505415865  0.46920600642104615  0.808068119758651  1.0000
  H   H31       1.0  0.1689793515882818  0.3541018417849331  0.8473032097889002  1.0000
  Zn  Zn1       1.0  0.7509254067850201  0.40760390568079186  0.5614236577166771  1.0000
  Zn  Zn2       1.0  0.9016466038580577  0.4048164702973984  0.560168020333254  1.0000
  C   C42       1.0  0.8262574170393255  0.40095119625448583  0.7979952716663992  1.0000
  C   C43       1.0  0.8263162397385718  0.4114707874639023  0.3235965203353055  1.0000
  C   C44       1.0  0.8263269116929237  0.64334749015197  0.5556490002043082  1.0000
  C   C45       1.0  0.8262466933792727  0.16907293456482764  0.5659428612807731  1.0000
  O   O3        1.0  0.8835072916993646  0.41212586951726315  0.3715070524702557  1.0000
  O   O4        1.0  0.8834602660849666  0.398179535891934  0.7491313658413659  1.0000
  O   O5        1.0  0.8835156126737268  0.5939176224991949  0.5534350435794615  1.0000
  O   O6        1.0  0.8834518936933512  0.2163877931848015  0.5672032777851574  1.0000
  O   O7        1.0  0.7691200655159801  0.5960325837460192  0.5543884006864299  1.0000
  O   O8        1.0  0.7690647191991743  0.4002960570929792  0.750084653886615  1.0000
  O   O9        1.0  0.7691117450455284  0.4142423460440052  0.3724587790785927  1.0000
  O   O10       1.0  0.769056347023022  0.21850426038937476  0.5681551017621542  1.0000
