data_image0
_chemical_formula_structural       NC10NC3NCH9C7OC4NC3H9C7OC6OCH12Zn2C4O8
_chemical_formula_sum              "N4 C46 H30 O11 Zn2"
_cell_length_a       19.437513618241372
_cell_length_b       10.299371701877257
_cell_length_c       10.299362532796529
_cell_angle_alpha    85.59861751689631
_cell_angle_beta     90.36260544927384
_cell_angle_gamma    89.53225479237402

_space_group_name_H-M_alt    "P 1"
_space_group_IT_number       1

loop_
  _space_group_symop_operation_xyz
  'x, y, z'

loop_
  _atom_site_type_symbol
  _atom_site_label
  _atom_site_symmetry_multiplicity
  _atom_site_fract_x
  _atom_site_fract_y
  _atom_site_fract_z
  _atom_site_occupancy
  N   N1        1.0  0.647777322889296  0.41004485702612525  0.5762510274074153  1.0000
  C   C1        1.0  0.588845071442936  0.4270540639235876  0.5732824827096474  1.0000
  C   C2        1.0  0.515405958511081  0.44830551657165896  0.5695978012244254  1.0000
  C   C3        1.0  0.4736317706952179  0.3471132638504941  0.5578941761525098  1.0000
  C   C4        1.0  0.397741458813265  0.35717619888609  0.550677262668386  1.0000
  C   C5        1.0  0.3581868837889081  0.43804034417129945  0.6164550357262433  1.0000
  C   C6        1.0  0.28200229302338  0.4294300735291505  0.6080071828702613  1.0000
  C   C7        1.0  0.24885571847575103  0.3080872485092083  0.6125973372409999  1.0000
  C   C8        1.0  0.1771191100871564  0.30171378550481043  0.6054265056880528  1.0000
  C   C9        1.0  0.1375584716486534  0.4162105528633626  0.5940275431677762  1.0000
  C   C10       1.0  0.0637073265828152  0.40949887126064777  0.5866884724272685  1.0000
  N   N2        1.0  0.004336104120361299  0.4041032694246369  0.5807883182149332  1.0000
  C   C11       1.0  0.1699885586181927  0.537242987159078  0.5901825265551242  1.0000
  C   C12       1.0  0.2417096077567309  0.5438704546829165  0.5974154907342797  1.0000
  C   C13       1.0  0.3868964549590526  0.5303460000150209  0.7064151846697793  1.0000
  N   N3        1.0  0.44388397031282534  0.5935533229350545  0.6860387696269743  1.0000
  C   C14       1.0  0.48770230119901165  0.5842657791284924  0.5729274906777899  1.0000
  H   H1        1.0  0.4960039979399313  0.25205483674096296  0.5457313224147222  1.0000
  H   H2        1.0  0.3730092656501385  0.2876508394031474  0.49232882159275393  1.0000
  H   H3        1.0  0.2782991814682296  0.21817859538599516  0.6235787202479386  1.0000
  H   H4        1.0  0.1525168879972245  0.20748908666260135  0.6092723426770836  1.0000
  H   H5        1.0  0.13986018741840414  0.6264972749186852  0.5815129970794275  1.0000
  H   H6        1.0  0.2658303463189793  0.6385079466636279  0.5935543750346943  1.0000
  H   H7        1.0  0.35691131685098243  0.5507510619546057  0.7907905191986073  1.0000
  H   H8        1.0  0.5304630162840943  0.6545790693314588  0.5787217086657792  1.0000
  H   H9        1.0  0.4580207711883091  0.6123532665951783  0.4822945213559324  1.0000
  C   C15       1.0  0.826024006421134  0.02570410793166711  0.5783922834939019  1.0000
  C   C16       1.0  0.8293476719685529  0.0349475097163765  0.4417732933668812  1.0000
  C   C17       1.0  0.8302428121602192  0.9224537120464833  0.37279412360314534  1.0000
  C   C18       1.0  0.8293562271732126  0.7996791491865017  0.4420907897270594  1.0000
  C   C19       1.0  0.826096017095554  0.7884338476429207  0.5786584049024275  1.0000
  C   C20       1.0  0.824267752965565  0.9020503837411182  0.6460008389968686  1.0000
  C   C21       1.0  0.8344749392511583  0.9320583263139257  0.22860180059949187  1.0000
  O   O1        1.0  0.8675806198250575  0.845742908873356  0.17407866364216007  1.0000
  C   C22       1.0  0.8011391534211784  0.03950187042224229  0.14626757011404057  1.0000
  C   C23       1.0  0.8305883803784796  0.08361846110472615  0.026675217723596045  1.0000
  C   C24       1.0  0.799067559005121  0.1840226625528305  0.947485404524592  1.0000
  C   C25       1.0  0.8298512080615154  0.2293003942412617  0.8257239416761646  1.0000
  N   N4        1.0  0.8545998929958019  0.2656940893347999  0.7278454219937305  1.0000
  C   C26       1.0  0.7375837153461021  0.24023802597114208  0.986873783047653  1.0000
  C   C27       1.0  0.7075534574401128  0.19591995472054924  0.10471923773336389  1.0000
  C   C28       1.0  0.7388767371159866  0.09581651600294538  0.18389513983913774  1.0000
  H   H10       1.0  0.8208098896072703  0.2155581103409192  0.8363071277799092  1.0000
  H   H11       1.0  0.8320147450769656  0.12981050496469315  0.3889220047485027  1.0000
  H   H12       1.0  0.8305562598509232  0.7128052958039186  0.38909519954861205  1.0000
  H   H13       1.0  0.8217058261436464  0.8941204985204086  0.7513243474335831  1.0000
  H   H14       1.0  0.8254226745985166  0.4566438659760911  0.6311737198524359  1.0000
  H   H15       1.0  0.8782964590918416  0.04072258421402286  0.9957062619631429  1.0000
  H   H16       1.0  0.7127731968083669  0.3178491359941009  0.926320162471792  1.0000
  H   H17       1.0  0.6597277400053454  0.23883362199708325  0.134533720767525  1.0000
  H   H18       1.0  0.7140332981605997  0.061548393226572795  0.2737329519433038  1.0000
  C   C29       1.0  0.8260063059550116  0.40694934844759634  0.19715774166250832  1.0000
  C   C30       1.0  0.7606921952549818  0.34935703789689154  0.19959385076640856  1.0000
  C   C31       1.0  0.7274531288007888  0.3216373672229005  0.08364773022989058  1.0000
  C   C32       1.0  0.7608859595464859  0.3495173670782066  0.9643420734920913  1.0000
  C   C33       1.0  0.8261137257226882  0.407188613073878  0.959892967514393  1.0000
  C   C34       1.0  0.8582410522178293  0.4358284093041602  0.07683410049894723  1.0000
  C   C35       1.0  0.6588328121604929  0.2594830907423227  0.08855531659840721  1.0000
  O   O2        1.0  0.6447688723309161  0.18051075143104778  0.18424537000606533  1.0000
  C   C36       1.0  0.6061700499103978  0.2869119107839073  0.984979588075241  1.0000
  C   C37       1.0  0.6008909479247017  0.4103725948914594  0.9171019097652042  1.0000
  C   C38       1.0  0.5505347070356078  0.4353913608216353  0.820773930557126  1.0000
  C   C39       1.0  0.5042452593877406  0.3384982964597725  0.7911021134836536  1.0000
  C   C40       1.0  0.5088008389930752  0.2152432237729507  0.859888868062396  1.0000
  C   C41       1.0  0.5591509023885082  0.19009736150301015  0.9562891294404388  1.0000
  O   O3        1.0  0.4547206039602959  0.3684831922686238  0.6934974863989969  1.0000
  C   C42       1.0  0.40454877992961075  0.2795578822515563  0.6534552039197075  1.0000
  H   H19       1.0  0.9493713896848319  0.515132634451182  0.3998702437020456  1.0000
  H   H20       1.0  0.7352164517428914  0.32704059504883887  0.29179583696533307  1.0000
  H   H21       1.0  0.7362890846609823  0.32484714176924157  0.8749662766558184  1.0000
  H   H22       1.0  0.9085596960749094  0.48031339191077294  0.07413472347370176  1.0000
  H   H23       1.0  0.8512518518181885  0.42882776605015294  0.6307513312066453  1.0000
  H   H24       1.0  0.6351910807654434  0.488051843399419  0.9393898052221643  1.0000
  H   H25       1.0  0.5472656437369255  0.5309053432435262  0.7692018875973781  1.0000
  H   H26       1.0  0.47371047528618204  0.13826293285210367  0.8396879308539948  1.0000
  H   H27       1.0  0.5617514997324975  0.09441264972673236  0.007739410557253024  1.0000
  H   H28       1.0  0.37223701836998446  0.32879145634206974  0.574977560471241  1.0000
  H   H29       1.0  0.37094996282226594  0.2479047185540384  0.736566119952327  1.0000
  H   H30       1.0  0.4301876971369655  0.1938105785514317  0.6150959729106735  1.0000
  Zn  Zn1       1.0  0.7506724912956336  0.4083267563206727  0.5775678992347031  1.0000
  Zn  Zn2       1.0  0.9014409424190288  0.40581070390166696  0.5794821125007366  1.0000
  C   C43       1.0  0.8260913884127145  0.4019697320286246  0.8157178394776501  1.0000
  C   C44       1.0  0.8260236918613971  0.4121693393821808  0.3413323211986885  1.0000
  C   C45       1.0  0.826078133711101  0.6442601424823962  0.5734329069200796  1.0000
  C   C46       1.0  0.8260368949787196  0.16987736950219068  0.5836173217970537  1.0000
  O   O4        1.0  0.8832453676604457  0.41296072148891416  0.3904450591236803  1.0000
  O   O5        1.0  0.8832994783266923  0.39926774451111813  0.768057570943109  1.0000
  O   O6        1.0  0.8832880038807623  0.594920328428169  0.5724107643751137  1.0000
  O   O7        1.0  0.8832567906464809  0.2173081476901193  0.5860917676673922  1.0000
  O   O8        1.0  0.7688565916183079  0.5968293133922378  0.5709582434079903  1.0000
  O   O9        1.0  0.7688680661986551  0.40117828976142156  0.7666049812751332  1.0000
  O   O10       1.0  0.7688139553540166  0.4148712209925487  0.3889909080451721  1.0000
  O   O11       1.0  0.7688253783500727  0.21921863793551455  0.58463771395311  1.0000
