data_image0
_chemical_formula_structural       NC11NC3H8C7OC6OCH12C6NCOC6H11Zn2C4O8
_chemical_formula_sum              "N3 C45 H31 O11 Zn2"
_cell_length_a       17.807433833752565
_cell_length_b       10.299359160628079
_cell_length_c       10.299662537453274
_cell_angle_alpha    85.5452158657264
_cell_angle_beta     88.51134067563711
_cell_angle_gamma    90.7076958246699

_space_group_name_H-M_alt    "P 1"
_space_group_IT_number       1

loop_
  _space_group_symop_operation_xyz
  'x, y, z'

loop_
  _atom_site_type_symbol
  _atom_site_label
  _atom_site_symmetry_multiplicity
  _atom_site_fract_x
  _atom_site_fract_y
  _atom_site_fract_z
  _atom_site_occupancy
  N   N1        1.0  0.7079434042858835  0.4390644507674515  0.5347722044337355  1.0000
  C   C1        1.0  0.6571069353477201  0.40431186403273833  0.601332277096833  1.0000
  C   C2        1.0  0.5938612441685809  0.3610825118636798  0.684124513335552  1.0000
  C   C3        1.0  0.6055571435341195  0.29748463201723907  0.8068387822213798  1.0000
  C   C4        1.0  0.5442195418954696  0.2559359556908287  0.8873472164942575  1.0000
  C   C5        1.0  0.4710315345494147  0.27767164226799834  0.8457821577238505  1.0000
  C   C6        1.0  0.45835893951726864  0.3414242499898883  0.722607698946925  1.0000
  C   C7        1.0  0.3806033950716008  0.3644911329016176  0.6782620726497033  1.0000
  C   C8        1.0  0.3618333100714635  0.34766690862267247  0.5486776815802699  1.0000
  C   C9        1.0  0.2886153571380726  0.3693638826360284  0.5070685466082623  1.0000
  C   C10       1.0  0.2332245995195634  0.40820392397644834  0.5942235457539109  1.0000
  C   C11       1.0  0.1578702608613152  0.4305598902482968  0.5512531579921667  1.0000
  N   N2        1.0  0.0972907452170833  0.4485324262901509  0.5167080936046431  1.0000
  C   C12       1.0  0.2513032412527373  0.42523892964011334  0.7232768143065607  1.0000
  C   C13       1.0  0.3244683900437675  0.40350692914755304  0.7651413796952014  1.0000
  C   C14       1.0  0.5205538497763544  0.3829683551209102  0.6421156803401689  1.0000
  H   H1        1.0  0.6620144097569121  0.2800572051847756  0.8402031769087788  1.0000
  H   H2        1.0  0.5533934333165146  0.20644691108099078  0.9820801043382377  1.0000
  H   H3        1.0  0.4243757282575391  0.24309095564839267  0.9092189073311221  1.0000
  H   H4        1.0  0.40351355109778  0.3160499436244393  0.4799567570637788  1.0000
  H   H5        1.0  0.2751840933279125  0.35552020437060805  0.4070308294417395  1.0000
  H   H6        1.0  0.20890600210770674  0.45563302853922094  0.791482838387894  1.0000
  H   H7        1.0  0.3373716045772399  0.41889612526260955  0.8649964942258486  1.0000
  H   H8        1.0  0.5120787204659509  0.43381970017718996  0.5476172494030911  1.0000
  C   C15       1.0  0.9025322626463481  0.06241809487714933  0.525712571530945  1.0000
  C   C16       1.0  0.8404046676977113  0.06621945360958881  0.44419700106777427  1.0000
  C   C17       1.0  0.8096079151726523  0.9511656582829594  0.40196463225883816  1.0000
  C   C18       1.0  0.8405835850207564  0.8309621969904573  0.4444438095697285  1.0000
  C   C19       1.0  0.9027090702914042  0.8251689142322284  0.5257786157371944  1.0000
  C   C20       1.0  0.9334294118639522  0.9414772567437765  0.5657289763772861  1.0000
  C   C21       1.0  0.7434853611954961  0.9573028824626831  0.3170978308720973  1.0000
  O   O1        1.0  0.6957417767800992  0.0450102788839295  0.3308796222964068  1.0000
  C   C22       1.0  0.7315232509946941  0.8640114550280564  0.21660402881615592  1.0000
  C   C23       1.0  0.7926384952011044  0.8121724906803051  0.14971253386914607  1.0000
  C   C24       1.0  0.7805763378766167  0.7255280832028985  0.05418912909795237  1.0000
  C   C25       1.0  0.7075971771078374  0.6898519473639433  0.02281192131111842  1.0000
  C   C26       1.0  0.6462292367582257  0.7427200279424058  0.08840336454808373  1.0000
  C   C27       1.0  0.6582226902363387  0.8294216368854156  0.18397637898841013  1.0000
  O   O2        1.0  0.6985111594727502  0.602439824402369  0.9263339316118504  1.0000
  C   C28       1.0  0.6277194594364575  0.5578905036813724  0.8847497270372227  1.0000
  H   H9        1.0  0.019570560335202547  0.2624778943908408  0.6799597941192272  1.0000
  H   H10       1.0  0.8162478817725525  0.1589722782209506  0.4123325709883201  1.0000
  H   H11       1.0  0.8156476982354008  0.7417299195578734  0.4151488839967623  1.0000
  H   H12       1.0  0.9813525998152435  0.9377404716234865  0.6284750956117677  1.0000
  H   H13       1.0  0.9263486685912171  0.49543626128299595  0.5574003722907543  1.0000
  H   H14       1.0  0.8497520473941196  0.8396407920855798  0.17019411095187809  1.0000
  H   H15       1.0  0.828261713819475  0.6862578222781528  0.0037948377682321954  1.0000
  H   H16       1.0  0.5890845127283999  0.7175285678541671  0.06627859696263427  1.0000
  H   H17       1.0  0.6101175822751302  0.8686362862515827  0.23333936948959222  1.0000
  H   H18       1.0  0.6371079595734159  0.48975169802031404  0.8078383405291882  1.0000
  H   H19       1.0  0.594713694858394  0.64145187201535  0.8437704894822606  1.0000
  H   H20       1.0  0.59617164555877  0.5055237724208068  0.9677501891364666  1.0000
  C   C29       1.0  0.9026724105385693  0.4439353149301779  0.1443672038996462  1.0000
  C   C30       1.0  0.9793704694464865  0.47817572448619594  0.13699788506309285  1.0000
  C   C31       1.0  0.018227981224486767  0.49354604613099773  0.01659179046409709  1.0000
  C   C32       1.0  0.979238938526161  0.47786244569714564  0.9018606608346014  1.0000
  C   C33       1.0  0.9025689360729784  0.4436517233583128  0.907123933682509  1.0000
  C   C34       1.0  0.8647825795333718  0.42643831670824817  0.02892251252038336  1.0000
  N   N3        1.0  0.09646793545348031  0.5305350212063198  0.012481606502145581  1.0000
  C   C35       1.0  0.1496294309675812  0.49197683940914905  0.9157982452404796  1.0000
  O   O3        1.0  0.1359041711962765  0.39308263606422633  0.8548739365452311  1.0000
  C   C36       1.0  0.22177594416811552  0.5640615647165412  0.890107341360904  1.0000
  C   C37       1.0  0.23086912662524184  0.6923558364175106  0.9260517267678372  1.0000
  C   C38       1.0  0.29903926046355433  0.7595705877152639  0.9007046909402994  1.0000
  C   C39       1.0  0.35866276004302056  0.6999920868660963  0.8389576275245023  1.0000
  C   C40       1.0  0.35017952887830606  0.5731590636463331  0.8019791156141225  1.0000
  C   C41       1.0  0.28213738263655563  0.5054903822125563  0.82699108939509  1.0000
  H   H21       1.0  0.7578213546546707  0.3805484163127817  0.3654467531837071  1.0000
  H   H22       1.0  0.009473552534137841  0.4921272285447664  0.22502288391144298  1.0000
  H   H23       1.0  0.008340951597082924  0.4945344190619605  0.808398796138984  1.0000
  H   H24       1.0  0.805659391746065  0.40002592564366424  0.0337392029178567  1.0000
  H   H25       1.0  0.8729161571521228  0.432203359316111  0.5815750868647576  1.0000
  H   H26       1.0  0.1169821565788769  0.5782387708217736  0.09045701219400093  1.0000
  H   H27       1.0  0.1852325174647953  0.7417824379665863  0.9719478519931166  1.0000
  H   H28       1.0  0.30552487367039305  0.8582100866006996  0.9285292202450917  1.0000
  H   H29       1.0  0.4113522248033261  0.7522526567270345  0.8194004912146529  1.0000
  H   H30       1.0  0.3963722428810843  0.5271633733357044  0.7538605411153365  1.0000
  H   H31       1.0  0.27693915991988627  0.40710481563620227  0.7977318145865246  1.0000
  Zn  Zn1       1.0  0.8203006344909433  0.441793226457446  0.5295667766584498  1.0000
  Zn  Zn2       1.0  0.9849334963534105  0.4457930267520527  0.5219241067369473  1.0000
  C   C42       1.0  0.9025856004280187  0.4385314642321232  0.762946216463481  1.0000
  C   C43       1.0  0.9026503285646003  0.4490564712767098  0.2885447110856092  1.0000
  C   C44       1.0  0.9026724780454148  0.6809946383618797  0.5205909785694911  1.0000
  C   C45       1.0  0.902563394398445  0.2065917354066955  0.5309000206928316  1.0000
  O   O4        1.0  0.9651202294245421  0.4522874155832297  0.3340316456796175  1.0000
  O   O5        1.0  0.9650682322002019  0.4383352961870559  0.711658298298312  1.0000
  O   O6        1.0  0.9651375445676672  0.6341273546980639  0.5159547682109711  1.0000
  O   O7        1.0  0.9650508608943995  0.25649536503406667  0.5297350809986063  1.0000
  O   O8        1.0  0.8401832137688396  0.6310908868119127  0.5217558049980278  1.0000
  O   O9        1.0  0.8401139017690187  0.4353003886776432  0.7174592659733736  1.0000
  O   O10       1.0  0.8401658992447036  0.4492524633982111  0.3398310519090473  1.0000
  O   O11       1.0  0.8400965306961237  0.2534604035236845  0.5355345845976256  1.0000
