data_image0
_chemical_formula_structural       NC10NC3NCH9C6SCOC6H10C6SCOC6H10Zn2C4O8
_chemical_formula_sum              "N3 C44 H29 S2 O10 Zn2"
_cell_length_a       19.437513618241372
_cell_length_b       10.302038109246572
_cell_length_c       10.302041481415108
_cell_angle_alpha    85.54819663174399
_cell_angle_beta     90.34339533155027
_cell_angle_gamma    89.54061355658763

_space_group_name_H-M_alt    "P 1"
_space_group_IT_number       1

loop_
  _space_group_symop_operation_xyz
  'x, y, z'

loop_
  _atom_site_type_symbol
  _atom_site_label
  _atom_site_symmetry_multiplicity
  _atom_site_fract_x
  _atom_site_fract_y
  _atom_site_fract_z
  _atom_site_occupancy
  N   N1        1.0  0.6481339727345785  0.41063124593322997  0.5762327974930306  1.0000
  C   C1        1.0  0.5892035413410105  0.42763826475652555  0.573261025783234  1.0000
  C   C2        1.0  0.5157666981629625  0.448886967799331  0.5695723073087873  1.0000
  C   C3        1.0  0.47398681311771257  0.34772687661378354  0.5578940963838317  1.0000
  C   C4        1.0  0.3980985321388663  0.3577920772447152  0.5506764296545017  1.0000
  C   C5        1.0  0.3585386508144555  0.4385937352370135  0.6164219498711268  1.0000
  C   C6        1.0  0.2823548773523737  0.42999105951876593  0.6079778368948607  1.0000
  C   C7        1.0  0.24919821689453242  0.3086746582320927  0.612594523789159  1.0000
  C   C8        1.0  0.1774623738159124  0.3023074153411076  0.6054266547914469  1.0000
  C   C9        1.0  0.13791248718418642  0.41678385762568304  0.5940041527907158  1.0000
  C   C10       1.0  0.0640621109473668  0.41007858781226103  0.5866681568804457  1.0000
  N   N2        1.0  0.0046915065884567  0.40468814061274383  0.5807704746007611  1.0000
  C   C11       1.0  0.1703525061201031  0.5377894576398035  0.590132516279156  1.0000
  C   C12       1.0  0.2420727985261651  0.5444106029661846  0.5973624471769861  1.0000
  C   C13       1.0  0.3872395657457168  0.5308183643496296  0.706342133682303  1.0000
  N   N3        1.0  0.4442354773810628  0.5940236488075556  0.6859557050158664  1.0000
  C   C14       1.0  0.4880728613209167  0.5848120996600774  0.5728704745132505  1.0000
  H   H1        1.0  0.4963538926690829  0.2526994234544544  0.5457553636789274  1.0000
  H   H2        1.0  0.373371214693306  0.2883216127027919  0.4923560986812001  1.0000
  H   H3        1.0  0.2786328822682792  0.21878064169975708  0.6235939614061761  1.0000
  H   H4        1.0  0.1528522706639366  0.20810305143339147  0.6092930351322361  1.0000
  H   H5        1.0  0.1402324785296978  0.6270277602238179  0.5814445911441417  1.0000
  H   H6        1.0  0.2662014524026826  0.6390276699028312  0.5934806977940965  1.0000
  H   H7        1.0  0.3572412461370382  0.5511634709493276  0.7906949826100025  1.0000
  H   H8        1.0  0.5308379436352972  0.6551045667496707  0.5786475284297463  1.0000
  H   H9        1.0  0.4584093163340183  0.6129518664348828  0.4822503238422613  1.0000
  C   C15       1.0  0.8263508763939915  0.02638227388829062  0.578460716889672  1.0000
  C   C16       1.0  0.7675379626776586  0.03215944180261987  0.49821011078422583  1.0000
  C   C17       1.0  0.7385987371992866  0.9180701818986127  0.45780104700600677  1.0000
  C   C18       1.0  0.767759254053212  0.7970231734815865  0.49815893273373324  1.0000
  C   C19       1.0  0.8264812182133875  0.7889269674238097  0.5785539299739453  1.0000
  C   C20       1.0  0.8555096061517138  0.9042643244333036  0.6182034049822684  1.0000
  S   S1        1.0  0.6639460744090445  0.9268846728160227  0.3542644084927824  1.0000
  C   C21       1.0  0.7145326595040565  0.9345862264887024  0.2085183438149416  1.0000
  O   O1        1.0  0.7311232269022283  0.8290578657298544  0.16238960395182844  1.0000
  C   C22       1.0  0.737225077037435  0.06039664495772734  0.143323952161847  1.0000
  C   C23       1.0  0.7858711787977709  0.06195990678272523  0.04245877894659045  1.0000
  C   C24       1.0  0.8079848832413578  0.1799486725871018  0.9810306530994524  1.0000
  C   C25       1.0  0.7818247044745553  0.2976084113709241  0.01919054920842611  1.0000
  C   C26       1.0  0.7333855568512284  0.2975147476072424  0.11870560896985749  1.0000
  C   C27       1.0  0.7110425203625974  0.17983333212061758  0.18045091858143691  1.0000
  H   H10       1.0  0.9371266453556705  0.22279828670008972  0.729891413587485  1.0000
  H   H11       1.0  0.7441319404631058  0.1250823875886653  0.46664329765514845  1.0000
  H   H12       1.0  0.7445748955226531  0.7096690587800024  0.466106516709347  1.0000
  H   H13       1.0  0.9008505155147722  0.8988902167406293  0.6800679466244646  1.0000
  H   H14       1.0  0.8489272914086176  0.45853237728290164  0.6087995930957137  1.0000
  H   H15       1.0  0.8071547657250592  0.9720514129822548  0.011438933988263678  1.0000
  H   H16       1.0  0.8455172666299982  0.1801032894873611  0.9038277480645851  1.0000
  H   H17       1.0  0.7990232454401613  0.3888426500706983  0.9715456408971854  1.0000
  H   H18       1.0  0.7130037114062253  0.38879170486032266  0.14797666212765637  1.0000
  H   H19       1.0  0.6731071533421827  0.1830735304780986  0.25651660549013355  1.0000
  C   C28       1.0  0.8264289569476704  0.4077836384704685  0.19722045949132916  1.0000
  C   C29       1.0  0.8579910416553658  0.5303265721229709  0.18672393160088574  1.0000
  C   C30       1.0  0.8740012980138402  0.5907713133677335  0.06454966132059603  1.0000
  C   C31       1.0  0.8580562692328202  0.5299217188111238  0.9516193013221086  1.0000
  C   C32       1.0  0.8264031348685963  0.40752557178988646  0.9597941907494865  1.0000
  C   C33       1.0  0.8108040856557429  0.3470354302381189  0.08316711614567462  1.0000
  S   S2        1.0  0.9149351941441921  0.7465845365721342  0.05256685539849615  1.0000
  C   C34       1.0  0.9996748736714642  0.6753880474536929  0.05620532714543325  1.0000
  O   O2        1.0  0.02659606636601608  0.6517720989138038  0.9494848922646097  1.0000
  C   C35       1.0  0.03759142281698358  0.6434208489317592  0.18020861795798537  1.0000
  C   C36       1.0  0.09861197752690476  0.5686979849563576  0.18116861915960625  1.0000
  C   C37       1.0  0.1344655859652788  0.537211001513423  0.2975732751292499  1.0000
  C   C38       1.0  0.11002886501262577  0.5799557276015981  0.41420493573691375  1.0000
  C   C39       1.0  0.04974773456385062  0.6545074938416378  0.4146345925234054  1.0000
  C   C40       1.0  0.013688834207893574  0.6863719444465148  0.2985267747960101  1.0000
  H   H20       1.0  0.7668368622427054  0.17692644224296483  0.4243116436918326  1.0000
  H   H21       1.0  0.8703587537716005  0.5790365179707504  0.27320153412843484  1.0000
  H   H22       1.0  0.8707155390641473  0.5782953538151046  0.8578148744157525  1.0000
  H   H23       1.0  0.7864735651316597  0.2525633168427974  0.09033865655795692  1.0000
  H   H24       1.0  0.8145564482694897  0.36081760212914804  0.6355785293505942  1.0000
  H   H25       1.0  0.1184795977168942  0.5339171555909397  0.09209867637382207  1.0000
  H   H26       1.0  0.1812231426942743  0.47946076870838095  0.2973144783865236  1.0000
  H   H27       1.0  0.13784580032504  0.5554466378056593  0.5042181295453272  1.0000
  H   H28       1.0  0.03094820094005546  0.6878838135183063  0.505071999877178  1.0000
  H   H29       1.0  0.9674535491340082  0.7450553038837961  0.3020195897668909  1.0000
  Zn  Zn1       1.0  0.751028779596223  0.40891270319748796  0.5775497799993417  1.0000
  Zn  Zn2       1.0  0.9017967037520865  0.40639601275200743  0.5794641583674094  1.0000
  C   C41       1.0  0.8264055790209199  0.402401957622305  0.815650749807808  1.0000
  C   C42       1.0  0.8264215509840858  0.4129083690279647  0.3413633371031142  1.0000
  C   C43       1.0  0.8264531956644592  0.644791589491861  0.5733621851513202  1.0000
  C   C44       1.0  0.8263738826250558  0.17051717806587163  0.5836519701394607  1.0000
  O   O3        1.0  0.883634705990525  0.41366754012900864  0.3904654995126866  1.0000
  O   O4        1.0  0.8836217897617575  0.39973169734464387  0.7680011823986135  1.0000
  O   O5        1.0  0.883659469463642  0.5954644029325469  0.5723514425780216  1.0000
  O   O6        1.0  0.8835969748466472  0.2179348447208158  0.5861151413274512  1.0000
  O   O7        1.0  0.7692284570519698  0.5973738720889183  0.570898796379187  1.0000
  O   O8        1.0  0.7691907776158832  0.4016427264537903  0.7665484671598068  1.0000
  O   O9        1.0  0.76920369393558  0.4155785245205412  0.3890112232042351  1.0000
  O   O10       1.0  0.7691659627840025  0.21984581979287676  0.5846609623647143  1.0000
