data_image0
_chemical_formula_structural       NC10NC3NH7C7OC3OC4H12C7OC4NC3H9Zn2C4O8
_chemical_formula_sum              "N4 C45 H28 O11 Zn2"
_cell_length_a       19.210446455230148
_cell_length_b       10.299371110280156
_cell_length_c       10.299375074045738
_cell_angle_alpha    85.5574175690685
_cell_angle_beta     89.9839463016943
_cell_angle_gamma    89.9600477448761

_space_group_name_H-M_alt    "P 1"
_space_group_IT_number       1

loop_
  _space_group_symop_operation_xyz
  'x, y, z'

loop_
  _atom_site_type_symbol
  _atom_site_label
  _atom_site_symmetry_multiplicity
  _atom_site_fract_x
  _atom_site_fract_y
  _atom_site_fract_z
  _atom_site_occupancy
  N   N1        1.0  0.655728589111755  0.4207413347491784  0.56777400540921  1.0000
  C   C1        1.0  0.5955001178294322  0.42294873610534456  0.5680059651378138  1.0000
  C   C2        1.0  0.5206957750520305  0.4256855096554919  0.5682933350530879  1.0000
  C   C3        1.0  0.485088811675329  0.5419088355148649  0.5834479705967603  1.0000
  C   C4        1.0  0.4124233400641568  0.5420603921246161  0.5833954260579157  1.0000
  C   C5        1.0  0.3755290444153704  0.42639443496082463  0.5683800793451763  1.0000
  C   C6        1.0  0.2982068703783972  0.4250380327014225  0.5682289883413656  1.0000
  C   C7        1.0  0.2604591985701509  0.528632807434968  0.504902177015629  1.0000
  C   C8        1.0  0.1876807949739491  0.5272306339477573  0.5047925888788019  1.0000
  C   C9        1.0  0.1516486639540967  0.42249121324810957  0.5679589066510857  1.0000
  C   C10       1.0  0.0767191006482936  0.4211891989968728  0.5678215992679436  1.0000
  N   N2        1.0  0.0164812135533573  0.42014233531665335  0.5677112389931904  1.0000
  C   C11       1.0  0.1886726840285721  0.3190221397406321  0.6312607541209798  1.0000
  C   C12       1.0  0.2614529241758477  0.32015002791961056  0.6314204905944323  1.0000
  C   C13       1.0  0.4137459262611825  0.3119912319067568  0.5535142815264769  1.0000
  N   N3        1.0  0.4845159580850603  0.3144361160998024  0.5536807391927014  1.0000
  H   H1        1.0  0.5131926165663103  0.6313367327437291  0.595529380151905  1.0000
  H   H2        1.0  0.3851572933627725  0.6320695908477476  0.5968718283389947  1.0000
  H   H3        1.0  0.2871913626367876  0.6099057368188328  0.4539389361202246  1.0000
  H   H4        1.0  0.1595391852722013  0.6076753345201007  0.45515949616294615  1.0000
  H   H5        1.0  0.1613009304665168  0.23761409180037285  0.6807940081707846  1.0000
  H   H6        1.0  0.2889496106835503  0.23982393684073267  0.6824914126547217  1.0000
  H   H7        1.0  0.387477749200176  0.22111913956192786  0.5399913169115877  1.0000
  C   C14       1.0  0.8360613034227715  0.03907056863448899  0.5676278239051602  1.0000
  C   C15       1.0  0.8280495027771353  0.04842474285105003  0.4316397254848823  1.0000
  C   C16       1.0  0.8232222696970192  0.9359570500096879  0.36321942290009446  1.0000
  C   C17       1.0  0.8280840349218898  0.8131566824188446  0.4319508154858436  1.0000
  C   C18       1.0  0.8361551536003647  0.8018031391145618  0.5678686676012918  1.0000
  C   C19       1.0  0.8399148338020878  0.9153578889364721  0.6349584099967023  1.0000
  C   C20       1.0  0.8154883161507523  0.9457052301558666  0.21946911037143169  1.0000
  O   O1        1.0  0.8440268134834397  0.8606442933804384  0.15543913792153208  1.0000
  C   C21       1.0  0.775371130299344  0.05186895075631748  0.14836295962193424  1.0000
  C   C22       1.0  0.7948361018260792  0.09704674396919488  0.021212917067918502  1.0000
  C   C23       1.0  0.7571892249590947  0.1961498581066683  0.951836431084343  1.0000
  O   O2        1.0  0.7794213608618107  0.23797000255326095  0.8257306513401583  1.0000
  C   C24       1.0  0.7462456621247274  0.33754226380064956  0.7442988092571592  1.0000
  C   C25       1.0  0.698792957069346  0.25008257512320586  0.010336566638242228  1.0000
  C   C26       1.0  0.6786134264591592  0.20461672768741312  0.13596962564277315  1.0000
  C   C27       1.0  0.7163838804527501  0.10579500541245013  0.20459388826531266  1.0000
  H   H8        1.0  0.8522426668445607  0.22875604009319672  0.824026239915179  1.0000
  H   H9        1.0  0.8263292245264747  0.1433829390262633  0.3786085980929186  1.0000
  H   H10       1.0  0.8248868704485494  0.7263224265444032  0.37922722326548164  1.0000
  H   H11       1.0  0.8460917930872663  0.9073427040457558  0.739795269641599  1.0000
  H   H12       1.0  0.8398347282725235  0.4699934088244103  0.619956572674671  1.0000
  H   H13       1.0  0.8398459374490242  0.056093868114738266  0.975830780762156  1.0000
  H   H14       1.0  0.774647318818139  0.35062328375526763  0.6504199551882044  1.0000
  H   H15       1.0  0.7472682390074671  0.4309787236507565  0.7913192069565875  1.0000
  H   H16       1.0  0.6916950096390844  0.3094072990283041  0.7245434438688609  1.0000
  H   H17       1.0  0.66856025974779  0.3266520661420982  0.9594517170187595  1.0000
  H   H18       1.0  0.6333405839826481  0.24573192661945598  0.18013003612201395  1.0000
  H   H19       1.0  0.6990130922588559  0.07063759266881098  0.30097869532517985  1.0000
  C   C28       1.0  0.8361319046079776  0.42057916500601444  0.18636151665715484  1.0000
  C   C29       1.0  0.8897245265306718  0.5136015022249276  0.17793808960765412  1.0000
  C   C30       1.0  0.9162145098831177  0.5616005231388701  0.056432550069809295  1.0000
  C   C31       1.0  0.8896117939104891  0.5133639527528695  0.9427127179442216  1.0000
  C   C32       1.0  0.8360845225536262  0.42029455814805927  0.9491349910758258  1.0000
  C   C33       1.0  0.8095295281625488  0.3746922131803596  0.0714375727197889  1.0000
  C   C34       1.0  0.9733043244031137  0.658824999375007  0.04747579851432038  1.0000
  O   O3        1.0  0.01778731745758222  0.654066105082147  0.9578316439037051  1.0000
  C   C35       1.0  0.9799206232796898  0.7614599378455895  0.14013355833803365  1.0000
  C   C36       1.0  0.04612119222679967  0.8079112360236436  0.17189330024541238  1.0000
  C   C37       1.0  0.052878592726417484  0.9059122368457813  0.25813980639431877  1.0000
  C   C38       1.0  0.12086151028824688  0.9521512466317459  0.2909302810857739  1.0000
  N   N4        1.0  0.17551211643379538  0.9893165841354861  0.3172863654489395  1.0000
  C   C39       1.0  0.9934420190776925  0.9588622143190477  0.31236026617906565  1.0000
  C   C40       1.0  0.9274735898629152  0.9144221893155464  0.28010016582777086  1.0000
  C   C41       1.0  0.9205777821298446  0.8166914039553954  0.1941293277907723  1.0000
  H   H20       1.0  0.7357282057616259  0.24357025925664377  0.4096918083503356  1.0000
  H   H21       1.0  0.9114607507593079  0.5477668662539839  0.2661283574372424  1.0000
  H   H22       1.0  0.9103359539493878  0.5495655530749732  0.848975393616267  1.0000
  H   H23       1.0  0.7682137638105642  0.30297811846647793  0.0771276004316499  1.0000
  H   H24       1.0  0.8159230709625143  0.3837411326530469  0.6242068325030861  1.0000
  H   H25       1.0  0.09239270411280964  0.7671141205936605  0.13049172890885274  1.0000
  H   H26       1.0  0.998094912358661  0.03473279909856952  0.3790626090068385  1.0000
  H   H27       1.0  0.8815489993139826  0.9561974307399348  0.3213531671673582  1.0000
  H   H28       1.0  0.8688703477914538  0.7853835829380758  0.1688250958579156  1.0000
  Zn  Zn1       1.0  0.7598340021085941  0.42056500957872056  0.5677633907009574  1.0000
  Zn  Zn2       1.0  0.9123757826541025  0.42030807390521185  0.5677324866338684  1.0000
  C   C42       1.0  0.8360913066481855  0.4151746255264639  0.804952810125054  1.0000
  C   C43       1.0  0.8361201440597058  0.4257000937338795  0.33054319486208494  1.0000
  C   C44       1.0  0.8361341464184731  0.657632375725322  0.5626477156994909  1.0000
  C   C45       1.0  0.8360772520412981  0.1832407832846379  0.5728483580474018  1.0000
  O   O4        1.0  0.8940050071540318  0.4273155526697232  0.3789201534622373  1.0000
  O   O5        1.0  0.8939821253140321  0.41336317877046747  0.7565520218802235  1.0000
  O   O6        1.0  0.8940159385176171  0.6091508791632976  0.5608889443673035  1.0000
  O   O7        1.0  0.8939711419054592  0.23152786169118533  0.574583133609422  1.0000
  O   O8        1.0  0.7782385908022148  0.6093452218818431  0.560912743729119  1.0000
  O   O9        1.0  0.7782047777917274  0.4135590818284929  0.7565757524860002  1.0000
  O   O10       1.0  0.7782276597694051  0.4275114110540985  0.3789423225801307  1.0000
  O   O11       1.0  0.7781937945107974  0.23172371075036424  0.5746054000967662  1.0000
