data_image0
_chemical_formula_structural       NC11NC3H8C7OC6OCH12C6SCOC6H10Zn2C4O8
_chemical_formula_sum              "N2 C45 H30 O11 S1 Zn2"
_cell_length_a       17.807433833752565
_cell_length_b       10.299359160628079
_cell_length_c       10.302041481415108
_cell_angle_alpha    85.54689826212588
_cell_angle_beta     88.52108606055918
_cell_angle_gamma    90.7076958246699

_space_group_name_H-M_alt    "P 1"
_space_group_IT_number       1

loop_
  _space_group_symop_operation_xyz
  'x, y, z'

loop_
  _atom_site_type_symbol
  _atom_site_label
  _atom_site_symmetry_multiplicity
  _atom_site_fract_x
  _atom_site_fract_y
  _atom_site_fract_z
  _atom_site_occupancy
  N   N1        1.0  0.7077988214979807  0.4390176832544468  0.5351206566069919  1.0000
  C   C1        1.0  0.6569689204401822  0.40426722100104207  0.6016649003306975  1.0000
  C   C2        1.0  0.593731398866048  0.3610405114156121  0.6844374473888446  1.0000
  C   C3        1.0  0.6054394071822662  0.2974465483943798  0.8071225330624698  1.0000
  C   C4        1.0  0.5441097497922256  0.25590044175662685  0.8876118212756199  1.0000
  C   C5        1.0  0.4709176409732839  0.27763480164969145  0.8460566472720081  1.0000
  C   C6        1.0  0.4582328915807698  0.34138347785791545  0.7229114811470376  1.0000
  C   C7        1.0  0.3804729712869911  0.36444894533467886  0.6785764008754263  1.0000
  C   C8        1.0  0.3616900994201385  0.34762058494821946  0.5490228268317314  1.0000
  C   C9        1.0  0.2884680406645985  0.36931623087063503  0.5074235871084707  1.0000
  C   C10       1.0  0.2330858831509974  0.4081590540464588  0.5945578595459899  1.0000
  C   C11       1.0  0.15772730434764784  0.4305136487785546  0.5515976907584188  1.0000
  N   N2        1.0  0.097144379935351  0.44848508220226746  0.5170608416823967  1.0000
  C   C12       1.0  0.251177259341852  0.425198178865134  0.7235804373814494  1.0000
  C   C13       1.0  0.3243465391598779  0.4034675146164073  0.7654350467763282  1.0000
  C   C14       1.0  0.5204198592110786  0.38292501382423905  0.6424386046961283  1.0000
  H   H1        1.0  0.6618999656693846  0.2800201864951417  0.8404789932185468  1.0000
  H   H2        1.0  0.5532929890737683  0.20641442085516926  0.9823221802809121  1.0000
  H   H3        1.0  0.42426809436481133  0.24305613982037544  0.9094783107108817  1.0000
  H   H4        1.0  0.4033635593419169  0.3160014264980602  0.48031824513617827  1.0000
  H   H5        1.0  0.2750269055347111  0.35546935957594505  0.4074096603450921  1.0000
  H   H6        1.0  0.2087867504930548  0.4555944547814452  0.7917702410925493  1.0000
  H   H7        1.0  0.3372596069945836  0.4188598979323763  0.8652664143293556  1.0000
  H   H8        1.0  0.5119354051754421  0.43377334265559364  0.5479626468405252  1.0000
  C   C15       1.0  0.9023867858902951  0.06237103819647993  0.526063178214772  1.0000
  C   C16       1.0  0.8402511473128988  0.06616979509423304  0.4445669933227514  1.0000
  C   C17       1.0  0.8094502274674815  0.9511146517841276  0.4023446679765026  1.0000
  C   C18       1.0  0.8404300889900147  0.8309125463527983  0.4448137431301058  1.0000
  C   C19       1.0  0.9025636000523277  0.8251218596595747  0.5261292067147627  1.0000
  C   C20       1.0  0.9332878837658428  0.9414314773168828  0.5660700665864211  1.0000
  C   C21       1.0  0.7433192991755723  0.9572491671637251  0.3174980491316648  1.0000
  O   O1        1.0  0.6955770746919433  0.044957003475691204  0.33127656304841646  1.0000
  C   C22       1.0  0.7313472726504198  0.8639545321423949  0.21702814594239128  1.0000
  C   C23       1.0  0.7924559162730466  0.8121134327349148  0.15015255875174338  1.0000
  C   C24       1.0  0.7803843330830292  0.7254659763172082  0.054651870815495274  1.0000
  C   C25       1.0  0.7074020761375378  0.6897888389725636  0.023282124978453167  1.0000
  C   C26       1.0  0.6460406080878337  0.7426590131153742  0.08885796962998893  1.0000
  C   C27       1.0  0.6580434923267595  0.8293636725821383  0.18440825543747952  1.0000
  O   O2        1.0  0.6983065384423178  0.6023736366020048  0.9268270791281106  1.0000
  C   C28       1.0  0.6275107350439075  0.5578229885858027  0.885252763873424  1.0000
  H   H9        1.0  0.01944030407492181  0.2624357610122072  0.6802737186024492  1.0000
  H   H10       1.0  0.8160912171338911  0.1589216026486211  0.4127101410615346  1.0000
  H   H11       1.0  0.8154913114991843  0.7416793338773378  0.41552578431037257  1.0000
  H   H12       1.0  0.9812172632519086  0.9376966949431667  0.6288012638943077  1.0000
  H   H13       1.0  0.9262063186599416  0.4953902160216013  0.5577434431613286  1.0000
  H   H14       1.0  0.8495714895057421  0.8395823878763704  0.17062926502184972  1.0000
  H   H15       1.0  0.8280647363198298  0.6861941068946694  0.004269563970636048  1.0000
  H   H16       1.0  0.5888937008748953  0.7174668468431831  0.066738463631421  1.0000
  H   H17       1.0  0.609943255306989  0.8685798975287765  0.23375950671192114  1.0000
  H   H18       1.0  0.6368916458744683  0.4896817280475714  0.8083596679955956  1.0000
  H   H19       1.0  0.5945009267994394  0.6413830489340655  0.8442832717685733  1.0000
  H   H20       1.0  0.5959711113181156  0.5054589065550719  0.9682334872730007  1.0000
  C   C29       1.0  0.9024893041548412  0.4438760863711877  0.14480849997833323  1.0000
  C   C30       1.0  0.9369593158037435  0.567815512641163  0.13230860283039036  1.0000
  C   C31       1.0  0.9544445762573122  0.6289681904881854  0.009118141444206307  1.0000
  C   C32       1.0  0.9370305232516605  0.5674133722998393  0.897199848645923  1.0000
  C   C33       1.0  0.90246109585537  0.44361683566565313  0.9073838741843723  1.0000
  C   C34       1.0  0.8854248542271163  0.3824365199052093  0.03174693053545785  1.0000
  S   S1        1.0  0.9991497165705983  0.786591750781471  0.9945371780556198  1.0000
  C   C35       1.0  0.09167865519233165  0.7190393900525267  0.9928068294443215  1.0000
  O   O3        1.0  0.12107439490128757  0.6965808928514605  0.8843807833400579  1.0000
  C   C36       1.0  0.13308048305456088  0.6887027182325303  0.11440785829980316  1.0000
  C   C37       1.0  0.1997089770601177  0.6165978015195488  0.11150238542073287  1.0000
  C   C38       1.0  0.2388581823069238  0.5866523009396853  0.22563551151987382  1.0000
  C   C39       1.0  0.21217624660960932  0.6283519972755693  0.3438148486847883  1.0000
  C   C40       1.0  0.1463551650047703  0.7003177326973313  0.3480631209443592  1.0000
  C   C41       1.0  0.10698180671212842  0.7306319260173118  0.2342398346002259  1.0000
  H   H21       1.0  0.8374068014573783  0.21038232016329728  0.3756822152729884  1.0000
  H   H22       1.0  0.9504665404246145  0.6170728607060854  0.2180011610184034  1.0000
  H   H23       1.0  0.9508561013972555  0.6163469235860692  0.8025919075550423  1.0000
  H   H24       1.0  0.8588526761576587  0.2868878792106957  0.0404628246348282  1.0000
  H   H25       1.0  0.8895228997344152  0.3963845115152158  0.5839201861132133  1.0000
  H   H26       1.0  0.22140200756197737  0.5826665980868235  0.02117414644807014  1.0000
  H   H27       1.0  0.28991285136742184  0.5309079644074519  0.22241477224638806  1.0000
  H   H28       1.0  0.24255005910848637  0.6050388421899671  0.43206568352868624  1.0000
  H   H29       1.0  0.12582837648554102  0.7328902248502449  0.4396911667164116  1.0000
  H   H30       1.0  0.05649747851858633  0.7873322096657676  0.24066146865835902  1.0000
  Zn  Zn1       1.0  0.8201555380523559  0.4417462927962752  0.5299164667570486  1.0000
  Zn  Zn2       1.0  0.9847876457668828  0.4457458491502013  0.5222756143720086  1.0000
  C   C42       1.0  0.902463532934247  0.43849197963519915  0.7632404055858912  1.0000
  C   C43       1.0  0.9024814490376141  0.44900184461202053  0.28895171968635935  1.0000
  C   C44       1.0  0.9025264959111596  0.6809474182089053  0.5209428032415406  1.0000
  C   C45       1.0  0.9024184295190188  0.2065448443003466  0.5312493937268881  1.0000
  O   O4        1.0  0.9649558383653809  0.4522342407820745  0.33442783683528376  1.0000
  O   O5        1.0  0.9649411038208693  0.4382941745693314  0.7119646844228544  1.0000
  O   O6        1.0  0.9649911049508137  0.634079986565349  0.5163076954403019  1.0000
  O   O7        1.0  0.9649057810634077  0.2564484367448765  0.5300847310720211  1.0000
  O   O8        1.0  0.840037346574973  0.6310437038381642  0.522107352657655  1.0000
  O   O9        1.0  0.8399873458058533  0.4352594522166786  0.7177642725446478  1.0000
  O   O10       1.0  0.8400020804476328  0.44919947370397706  0.34022586388278  1.0000
  O   O11       1.0  0.8399520231368302  0.2534136603445232  0.5358828554659507  1.0000
