data_image0
_chemical_formula_structural       NC10NC3NCH9C7OC6OCH12C7OC3FC3H9Zn2C4O8
_chemical_formula_sum              "N3 C45 H30 O11 F1 Zn2"
_cell_length_a       19.437513618241372
_cell_length_b       10.299359160628079
_cell_length_c       10.29938172300155
_cell_angle_alpha    85.58141560917656
_cell_angle_beta     90.33093660507195
_cell_angle_gamma    89.54510135387923

_space_group_name_H-M_alt    "P 1"
_space_group_IT_number       1

loop_
  _space_group_symop_operation_xyz
  'x, y, z'

loop_
  _atom_site_type_symbol
  _atom_site_label
  _atom_site_symmetry_multiplicity
  _atom_site_fract_x
  _atom_site_fract_y
  _atom_site_fract_z
  _atom_site_occupancy
  N   N1        1.0  0.6483603541659506  0.4101365034746307  0.5759024082876698  1.0000
  C   C1        1.0  0.58943097804565  0.42714616274641704  0.5729296345824268  1.0000
  C   C2        1.0  0.5159954504757721  0.4483981794802667  0.5692396692977104  1.0000
  C   C3        1.0  0.474212750734973  0.34720458554257383  0.5575612526024354  1.0000
  C   C4        1.0  0.3983257381388182  0.35726803927506845  0.5503418462588774  1.0000
  C   C5        1.0  0.3587614509380446  0.43813066208944984  0.6160993809914759  1.0000
  C   C6        1.0  0.2825783169144476  0.42952061994569335  0.6076536854808945  1.0000
  C   C7        1.0  0.24941608459740663  0.30817533034188105  0.6122740369988746  1.0000
  C   C8        1.0  0.1776808230681252  0.30180207866376807  0.6051048038762059  1.0000
  C   C9        1.0  0.1381370275534821  0.4163014965108873  0.5936773596749154  1.0000
  C   C10       1.0  0.0642872386877486  0.4095900276882729  0.586339971834585  1.0000
  N   N2        1.0  0.0049171065455608  0.40419459691733506  0.5804411705263224  1.0000
  C   C11       1.0  0.1705825175947212  0.5373363553668911  0.5898022219370302  1.0000
  C   C12       1.0  0.2423022316533208  0.5439636134250776  0.5970335243553575  1.0000
  C   C13       1.0  0.3874555821021157  0.5304338961208661  0.7060364033080091  1.0000
  N   N3        1.0  0.44445651742125747  0.5936433297522308  0.6856442885587986  1.0000
  C   C14       1.0  0.4883068573681394  0.5843608139621004  0.5725355098270151  1.0000
  H   H1        1.0  0.49657732404296173  0.25214495224599953  0.5454220811673096  1.0000
  H   H2        1.0  0.3736024203768565  0.2877440712661328  0.49201080867411084  1.0000
  H   H3        1.0  0.2788457274470531  0.21826450257226382  0.6232777818814832  1.0000
  H   H4        1.0  0.1530663600732446  0.2075754530888667  0.6089740889778334  1.0000
  H   H5        1.0  0.1404672127264371  0.6265926993284461  0.5811104896213426  1.0000
  H   H6        1.0  0.2664352642878327  0.6386030405072205  0.5931488578156912  1.0000
  H   H7        1.0  0.3574481566750068  0.5508354577038916  0.7904065180852662  1.0000
  H   H8        1.0  0.5310741712311089  0.6546751436026668  0.5783122157042766  1.0000
  H   H9        1.0  0.4586551666026162  0.6124529900810205  0.4818956998576409  1.0000
  C   C15       1.0  0.826561071788683  0.02578851806950655  0.5781393313345156  1.0000
  C   C16       1.0  0.7696681459443029  0.031995296945264595  0.49301890395116366  1.0000
  C   C17       1.0  0.7414662779112765  0.9181327151061579  0.448999641866606  1.0000
  C   C18       1.0  0.7698319879433911  0.7967311207549947  0.49327609358572255  1.0000
  C   C19       1.0  0.8267229867682923  0.7885323866592221  0.5782156381948993  1.0000
  C   C20       1.0  0.8548549420957444  0.9036510905701589  0.6199485066835626  1.0000
  C   C21       1.0  0.6809149432117569  0.9268312327361948  0.3602961405216514  1.0000
  O   O1        1.0  0.6371919724085642  0.016435601828958646  0.37130599645279716  1.0000
  C   C22       1.0  0.6699630577697699  0.8339491726227842  0.2591101290349702  1.0000
  C   C23       1.0  0.7259329823623287  0.7796507143956009  0.1957680002101918  1.0000
  C   C24       1.0  0.714889338887974  0.693422783003899  0.09954646822332514  1.0000
  C   C25       1.0  0.6480573912619274  0.6606130358967159  0.06393333610562468  1.0000
  C   C26       1.0  0.5918560885640824  0.7159497799289263  0.12596077231640246  1.0000
  C   C27       1.0  0.6028368131044263  0.802237661446043  0.22222792445128503  1.0000
  O   O2        1.0  0.6397392615070822  0.5734990789557451  0.9669300124162326  1.0000
  C   C28       1.0  0.5749108265678197  0.5317231613540924  0.9212370964125149  1.0000
  H   H10       1.0  0.933738084260645  0.2213173312090797  0.7391775036986761  1.0000
  H   H11       1.0  0.7475467368995433  0.12568330272755168  0.4597528177335741  1.0000
  H   H12       1.0  0.7469970235886739  0.7084664669516556  0.4625342264118666  1.0000
  H   H13       1.0  0.8987402817274097  0.8980587593799948  0.6854752971716904  1.0000
  H   H14       1.0  0.8483707727254449  0.4578848531403775  0.6112090322500723  1.0000
  H   H15       1.0  0.7782358326618267  0.8048731939162302  0.2195647052221612  1.0000
  H   H16       1.0  0.7585600122674653  0.6522346338719276  0.051921542089963246  1.0000
  H   H17       1.0  0.5395247370094481  0.693004332532922  0.10051910350238558  1.0000
  H   H18       1.0  0.5587817862018194  0.84338614519966  0.26879720607667257  1.0000
  H   H19       1.0  0.583510740548362  0.4631642725725551  0.8448724342709433  1.0000
  H   H20       1.0  0.5446859562770047  0.6165639030782379  0.8783426993831998  1.0000
  H   H21       1.0  0.5460177017799033  0.4806567634795155  0.002404297646497966  1.0000
  C   C29       1.0  0.8266999226354372  0.40705836692785025  0.19681052434225887  1.0000
  C   C30       1.0  0.8484444686835767  0.2762386012322702  0.20593587273712255  1.0000
  C   C31       1.0  0.8601593533563365  0.21070051288313763  0.09333923504579111  1.0000
  C   C32       1.0  0.8483787277991347  0.2765328374906373  0.970669014386714  1.0000
  C   C33       1.0  0.8265841040761358  0.40726254725303046  0.9595444252607259  1.0000
  C   C34       1.0  0.816044255507685  0.4718699020631678  0.0732086212980172  1.0000
  C   C35       1.0  0.8824236594063972  0.07215793268818649  0.10285450158775644  1.0000
  O   O3        1.0  0.8612176752959604  0.9992655769957561  0.01839617619555023  1.0000
  C   C36       1.0  0.9287497885267676  0.01631157258008198  0.20808406857472916  1.0000
  C   C37       1.0  0.9231793780018026  0.8844405883199203  0.25327347010059675  1.0000
  C   C38       1.0  0.9671621602422223  0.8304992985646907  0.3513846434352341  1.0000
  F   F1        1.0  0.9610427581267953  0.7035312476135324  0.39496318352810733  1.0000
  C   C39       1.0  0.01742663112083198  0.9072869751381922  0.40449996261729226  1.0000
  C   C40       1.0  0.023987566105460045  0.03793597742919674  0.3592579943051051  1.0000
  C   C41       1.0  0.9801413013464308  0.09228677172757549  0.2612195746953614  1.0000
  H   H22       1.0  0.7846545229851392  0.6533347421624733  0.38694458362849593  1.0000
  H   H23       1.0  0.8555614171233564  0.22472837386549105  0.3008270584014048  1.0000
  H   H24       1.0  0.8568954847835857  0.22584028761545127  0.8837467044586544  1.0000
  H   H25       1.0  0.7992805078522366  0.5727218974680337  0.06536959816277865  1.0000
  H   H26       1.0  0.8176570423208095  0.45715363792048147  0.6278334648553883  1.0000
  H   H27       1.0  0.8844087605341013  0.8235690469260551  0.21340100715045907  1.0000
  H   H28       1.0  0.05149624480164472  0.8655098565537467  0.4803463273413857  1.0000
  H   H29       1.0  0.06329766600938647  0.09705075161492882  0.3997760785585185  1.0000
  H   H30       1.0  0.9869269944137568  0.19313486814539482  0.22605505188308594  1.0000
  Zn  Zn1       1.0  0.7512549344809428  0.4084183103154839  0.5772197055936525  1.0000
  Zn  Zn2       1.0  0.9020225285556304  0.4059021231595752  0.5791345419707201  1.0000
  C   C42       1.0  0.8266033815009088  0.40205021857514245  0.8153708316694237  1.0000
  C   C43       1.0  0.826675728241588  0.41227182611145685  0.3409835644345405  1.0000
  C   C44       1.0  0.8266896192657244  0.6443562682760764  0.5730259913641598  1.0000
  C   C45       1.0  0.826589438688608  0.16996421695221509  0.5833284731686601  1.0000
  O   O4        1.0  0.8838831233987295  0.41306096486580945  0.39009602358581685  1.0000
  O   O5        1.0  0.8838251015705814  0.39935037214683144  0.7677113150799817  1.0000
  O   O6        1.0  0.8838939681587616  0.5950155848923622  0.5720161322425457  1.0000
  O   O7        1.0  0.8838142053805372  0.21739576224322965  0.5857911083966143  1.0000
  O   O8        1.0  0.7694632062064566  0.5969246720918933  0.5705631385074874  1.0000
  O   O9        1.0  0.7693943399568615  0.40126101966473304  0.7662582522557981  1.0000
  O   O10       1.0  0.769452362058205  0.4149715667079812  0.38864139936508746  1.0000
  O   O11       1.0  0.7693834440204455  0.2193063548225136  0.5843365815422539  1.0000
