data_image0
_chemical_formula_structural       NC8NC6H8C6NCOC6H11C7OC6OCH12Zn2C4O8
_chemical_formula_sum              "N3 C45 H31 O11 Zn2"
_cell_length_a       17.457602349358154
_cell_length_b       10.29965916528486
_cell_length_c       10.299362532796529
_cell_angle_alpha    85.59689086151258
_cell_angle_beta     92.89066602148195
_cell_angle_gamma    91.70433465767697

_space_group_name_H-M_alt    "P 1"
_space_group_IT_number       1

loop_
  _space_group_symop_operation_xyz
  'x, y, z'

loop_
  _atom_site_type_symbol
  _atom_site_label
  _atom_site_symmetry_multiplicity
  _atom_site_fract_x
  _atom_site_fract_y
  _atom_site_fract_z
  _atom_site_occupancy
  N   N1        1.0  0.7224663701888585  0.45236315874710376  0.6269763078508288  1.0000
  C   C1        1.0  0.6613786413629209  0.40643544424297606  0.616345246506895  1.0000
  C   C2        1.0  0.5853829261805924  0.34930708472786387  0.6031297501342181  1.0000
  C   C3        1.0  0.5268731707547251  0.38949217070786823  0.6780414068844924  1.0000
  C   C4        1.0  0.4523160097502681  0.33448222916331716  0.6654410570559348  1.0000
  C   C5        1.0  0.3902164495944272  0.37691183801154815  0.7447753002284605  1.0000
  C   C6        1.0  0.3156642951813274  0.395361988513079  0.6890174405618905  1.0000
  C   C7        1.0  0.2571545213171629  0.4353631872810588  0.7640369908680527  1.0000
  C   C8        1.0  0.181163970805112  0.4544184682478607  0.7060638522564417  1.0000
  N   N2        1.0  0.12008048359530782  0.46973253462255404  0.6594535977439633  1.0000
  C   C9        1.0  0.2727048620752868  0.4571575353333208  0.8953230035388633  1.0000
  C   C10       1.0  0.3464724422092807  0.43909648815635105  0.9514685937933329  1.0000
  C   C11       1.0  0.404970714921319  0.39927548696536874  0.8769068285161814  1.0000
  C   C12       1.0  0.4375569050243511  0.23860933597056944  0.5764958935495479  1.0000
  C   C13       1.0  0.49605505446039  0.19870305278087397  0.5019843360777567  1.0000
  C   C14       1.0  0.5698275560824808  0.2538255441064423  0.5151346777512729  1.0000
  H   H1        1.0  0.5392409859599548  0.4647063925955883  0.7446976546615853  1.0000
  H   H2        1.0  0.30330061836508665  0.38035928495931026  0.5869871112452465  1.0000
  H   H3        1.0  0.2278585981772666  0.4880585668761275  0.9541695988708065  1.0000
  H   H4        1.0  0.358322625059289  0.4556567016996935  0.05312617645420992  1.0000
  H   H5        1.0  0.4614609183119835  0.38429876029564003  0.9230087017288617  1.0000
  H   H6        1.0  0.3810625529154216  0.19327126639736303  0.565828910754989  1.0000
  H   H7        1.0  0.484201058419553  0.12460488610098674  0.43413012737177437  1.0000
  H   H8        1.0  0.614673790249765  0.22205499569755327  0.45679892307107917  1.0000
  C   C15       1.0  0.9212095898514295  0.07968431931245346  0.6430942628283973  1.0000
  C   C16       1.0  0.9217096721395851  0.0889447785767743  0.5063218353665024  1.0000
  C   C17       1.0  0.9230929533004082  0.9768233466530503  0.4376005948423385  1.0000
  C   C18       1.0  0.9218542733339353  0.8537608942228383  0.5066300248661844  1.0000
  C   C19       1.0  0.921344583483551  0.8424016400889205  0.6433474450524019  1.0000
  C   C20       1.0  0.9212950929197499  0.9559828934417325  0.710829927749457  1.0000
  N   N3        1.0  0.922425555535243  0.9898236515675872  0.29748273347819887  1.0000
  C   C21       1.0  0.9583765932147252  0.9002406050732521  0.22069470357014276  1.0000
  O   O1        1.0  0.011310740929823204  0.8297488538723397  0.27199549406347834  1.0000
  C   C22       1.0  0.9360545067421027  0.8930260998578686  0.0805079540508391  1.0000
  C   C23       1.0  0.8651036125680429  0.9397696589206977  0.02836781241450481  1.0000
  C   C24       1.0  0.8445244643438375  0.9318169761037207  0.896166878718013  1.0000
  C   C25       1.0  0.8941813632681681  0.8768727981444162  0.8147679697847989  1.0000
  C   C26       1.0  0.9644566579770412  0.8293117798341364  0.8654767365730875  1.0000
  C   C27       1.0  0.9853286829692268  0.8369208918534955  0.9975971200890119  1.0000
  H   H9        1.0  0.919533985245629  0.26944798555565974  0.901031090538128  1.0000
  H   H10       1.0  0.9216129946686912  0.18353322784508053  0.452492038800951  1.0000
  H   H11       1.0  0.9199406968093943  0.7668703863443287  0.45366946319365686  1.0000
  H   H12       1.0  0.920919844802421  0.9479791845180818  0.8162668729882743  1.0000
  H   H13       1.0  0.9201283519584708  0.5105505596684492  0.6957085204260423  1.0000
  H   H14       1.0  0.9005274273596666  0.07498580434203794  0.24975459905223252  1.0000
  H   H15       1.0  0.8249095773731409  0.9807305561642402  0.0895657765596456  1.0000
  H   H16       1.0  0.7898413056112941  0.9678507778492302  0.8569153074082929  1.0000
  H   H17       1.0  0.8780986219775666  0.870781768454277  0.7124989058808318  1.0000
  H   H18       1.0  0.002835136740151567  0.7864752533213691  0.802366794056192  1.0000
  H   H19       1.0  0.04020362017512635  0.7997086629992307  0.034645693464599114  1.0000
  C   C28       1.0  0.9212171956631768  0.4609198498505447  0.26184905585418683  1.0000
  C   C29       1.0  0.8483784019222139  0.39905877090402564  0.25916857654321657  1.0000
  C   C30       1.0  0.8113100558537795  0.36916664156618073  0.14061852942264275  1.0000
  C   C31       1.0  0.848594488580922  0.3992317642753578  0.02393197866660679  1.0000
  C   C32       1.0  0.9213370013735915  0.4611661319239224  0.024592693257230902  1.0000
  C   C33       1.0  0.957165662877891  0.4919056836159559  0.1440506148936651  1.0000
  C   C34       1.0  0.7347840379620564  0.3025275482041956  0.140150565300861  1.0000
  O   O2        1.0  0.7190950504024229  0.22263751808413357  0.23474049539205533  1.0000
  C   C35       1.0  0.6760594222957304  0.326512803546833  0.032447534325690475  1.0000
  C   C36       1.0  0.6701813165030963  0.4496255845151036  0.9641531829105023  1.0000
  C   C37       1.0  0.614028632294298  0.4713516339589454  0.863878698079052  1.0000
  C   C38       1.0  0.5624022656937118  0.3714344640272196  0.8305820147206759  1.0000
  C   C39       1.0  0.5674735543226989  0.24847998792511516  0.8997287424496445  1.0000
  C   C40       1.0  0.6236193406183624  0.22662644112488373  7.502847796736489e-05  1.0000
  O   O3        1.0  0.5071772755228812  0.3981808987554454  0.7290959238897758  1.0000
  C   C41       1.0  0.4512220702249988  0.30597748512439327  0.685124359615013  1.0000
  H   H20       1.0  0.058794833881968156  0.5771659853595639  0.47422576827955987  1.0000
  H   H21       1.0  0.8199676692856287  0.3750772932939881  0.34937483583051865  1.0000
  H   H22       1.0  0.8211636525251065  0.3729540150691695  0.9326293800278727  1.0000
  H   H23       1.0  0.013281406046360633  0.5396793654850449  0.14529310593024825  1.0000
  H   H24       1.0  0.949371193270126  0.48444826234019045  0.6974203447657041  1.0000
  H   H25       1.0  0.708436488076065  0.5295455405638079  0.9891269338915936  1.0000
  H   H26       1.0  0.610390005386345  0.5666497510998922  0.812048168038416  1.0000
  H   H27       1.0  0.5283372113782521  0.1692073106204528  0.8767800105031811  1.0000
  H   H28       1.0  0.6265125192333076  0.13111389595835599  0.05173142008105813  1.0000
  H   H29       1.0  0.4151933223765074  0.3530974988925559  0.604113580091648  1.0000
  H   H30       1.0  0.41375226811479876  0.2721284314786374  0.7656032548600886  1.0000
  H   H31       1.0  0.47980701433868905  0.2219083083199147  0.6487762716328378  1.0000
  Zn  Zn1       1.0  0.8372092149739015  0.4573721051923292  0.6363560495351965  1.0000
  Zn  Zn2       1.0  0.005337624345560066  0.46471294393722085  0.6500844851329712  1.0000
  C   C42       1.0  0.9213117177296909  0.45594590760477716  0.8804159418858186  1.0000
  C   C43       1.0  0.9212369578568351  0.4661408603247088  0.4060248707078373  1.0000
  C   C44       1.0  0.9213143148315  0.6982300160138892  0.6381240742157257  1.0000
  C   C45       1.0  0.921234303119246  0.2238551891519207  0.6483168024145498  1.0000
  O   O4        1.0  0.9850474443746727  0.4706732235174518  0.45962145911718566  1.0000
  O   O5        1.0  0.9851068034662307  0.45698409133421536  0.8372385442666888  1.0000
  O   O6        1.0  0.9851080407643886  0.6526315358573251  0.6415860770836568  1.0000
  O   O7        1.0  0.9850461496920286  0.275025785748062  0.6552738242433094  1.0000
  O   O8        1.0  0.8575006322534577  0.6470592608778314  0.631166705733186  1.0000
  O   O9        1.0  0.8574993952171044  0.45141337661474124  0.8268191041879269  1.0000
  O   O10       1.0  0.8574400359233326  0.46510246304067193  0.44920045761502614  1.0000
  O   O11       1.0  0.8574387412511991  0.2694550160139053  0.6448529201063864  1.0000
