data_image0
_chemical_formula_structural       NC11NC3H8C7OC6OCH12C7OC6H10Zn2C4O8
_chemical_formula_sum              "N2 C45 H30 O11 Zn2"
_cell_length_a       17.807433833752565
_cell_length_b       10.299359160628079
_cell_length_c       10.299382801718286
_cell_angle_alpha    85.57723515363111
_cell_angle_beta     88.5048620642858
_cell_angle_gamma    90.7076958246699

_space_group_name_H-M_alt    "P 1"
_space_group_IT_number       1

loop_
  _space_group_symop_operation_xyz
  'x, y, z'

loop_
  _atom_site_type_symbol
  _atom_site_label
  _atom_site_symmetry_multiplicity
  _atom_site_fract_x
  _atom_site_fract_y
  _atom_site_fract_z
  _atom_site_occupancy
  N   N1        1.0  0.7080324510393604  0.43824537418496456  0.5347917910347986  1.0000
  C   C1        1.0  0.6571919370247933  0.4035299951779594  0.6013509739484701  1.0000
  C   C2        1.0  0.5939412142868259  0.360346924673854  0.68414210345245  1.0000
  C   C3        1.0  0.6056296558991859  0.29681764329673377  0.8068547319411759  1.0000
  C   C4        1.0  0.5442871614959289  0.25531397196777483  0.8873620900082992  1.0000
  C   C5        1.0  0.47110168019637194  0.27702642327300175  0.8457975868635959  1.0000
  C   C6        1.0  0.4584365708846705  0.3407101752749482  0.7226247746354137  1.0000
  C   C7        1.0  0.3806837214698128  0.3637522685504546  0.6782797411334511  1.0000
  C   C8        1.0  0.3619215117429679  0.3468556053370975  0.5486970822982682  1.0000
  C   C9        1.0  0.288706087534732  0.3685293194394854  0.5070885035411572  1.0000
  C   C10       1.0  0.2333100332178208  0.40741808127173784  0.5942423376323318  1.0000
  C   C11       1.0  0.1579583060125749  0.429750026679075  0.5512725242821876  1.0000
  N   N2        1.0  0.0973808897864961  0.44770325169409353  0.5167279216797851  1.0000
  C   C12       1.0  0.2513808319557791  0.42452522896716394  0.7232938810505727  1.0000
  C   C13       1.0  0.324543436498301  0.4028166311736585  0.7651578868098214  1.0000
  C   C14       1.0  0.520636372910729  0.38220928458503534  0.6421338320149734  1.0000
  H   H1        1.0  0.6620848944570396  0.27940886748526483  0.8402186806261918  1.0000
  H   H2        1.0  0.553455295685139  0.20587788396322337  0.982093711499507  1.0000
  H   H3        1.0  0.4244420186427951  0.24248119841315052  0.9092334884728215  1.0000
  H   H4        1.0  0.403605929167823  0.3152002246739636  0.47997707641663867  1.0000
  H   H5        1.0  0.2752809033484814  0.35462971911761465  0.4070521236403233  1.0000
  H   H6        1.0  0.2089794477044175  0.4549574556968241  0.7914989933800352  1.0000
  H   H7        1.0  0.3374405825052316  0.41826164726851656  0.865011666515741  1.0000
  H   H8        1.0  0.5121669865834364  0.43300780409971873  0.5476366642965382  1.0000
  C   C15       1.0  0.9026218599837686  0.06159395387179334  0.5257322792376931  1.0000
  C   C16       1.0  0.8404992190067456  0.06534974460785903  0.4442177984432847  1.0000
  C   C17       1.0  0.8097050330828293  0.9502723409764878  0.4019859941803954  1.0000
  C   C18       1.0  0.8406781213304194  0.83009262595708  0.4444646036459978  1.0000
  C   C19       1.0  0.9027986636150992  0.8243448101462257  0.5257983225610889  1.0000
  C   C20       1.0  0.9335165772717107  0.940675485297764  0.5657481491601402  1.0000
  C   C21       1.0  0.7435876367427069  0.9563621237891718  0.3171203272603822  1.0000
  O   O1        1.0  0.6958432147621293  0.044077224365808965  0.3309019344550099  1.0000
  C   C22       1.0  0.731631633883606  0.8630145193422072  0.21662786856689675  1.0000
  C   C23       1.0  0.7927509433080515  0.8111381619984696  0.14973726779963847  1.0000
  C   C24       1.0  0.7806945912577349  0.724440356009129  0.054215139948543545  1.0000
  C   C25       1.0  0.7077173373859548  0.6887466800059756  0.02283835160014358  1.0000
  C   C26       1.0  0.6463454108267626  0.7416514268388795  0.08842891803594788  1.0000
  C   C27       1.0  0.6583330560157608  0.8284064620261107  0.18400065489301265  1.0000
  O   O2        1.0  0.6986371830383308  0.6012806249102123  0.9263616515814976  1.0000
  C   C28       1.0  0.6278480102120899  0.5567080582145821  0.884778002888507  1.0000
  H   H9        1.0  0.019650783557249252  0.26173997908248414  0.6799774399084884  1.0000
  H   H10       1.0  0.816344369588701  0.15808475669302458  0.4123537943152642  1.0000
  H   H11       1.0  0.8157440148948659  0.740843972376299  0.4151700696763181  1.0000
  H   H12       1.0  0.9814359519331995  0.9369737758681363  0.6284934296286571  1.0000
  H   H13       1.0  0.9264363401558728  0.4946298340663295  0.5574196564071814  1.0000
  H   H14       1.0  0.8498632507676878  0.8386179128044531  0.17021857109253302  1.0000
  H   H15       1.0  0.8283830298288412  0.6851419241856029  0.0038215222703079643  1.0000
  H   H16       1.0  0.5892020313924533  0.7164475987904662  0.06630444620587328  1.0000
  H   H17       1.0  0.6102249481018763  0.8676487057838689  0.23336298552874224  1.0000
  H   H18       1.0  0.6372411845091309  0.48852625834074265  0.8078676445022768  1.0000
  H   H19       1.0  0.5948447360782257  0.6402465187563712  0.8437993131282151  1.0000
  H   H20       1.0  0.596295152120998  0.5043877250192503  0.9677773554695288  1.0000
  C   C29       1.0  0.9027851834989499  0.442897998156923  0.14439200928445128  1.0000
  C   C30       1.0  0.9817118857236625  0.44567873487929766  0.1394266161552784  1.0000
  C   C31       1.0  0.02151993121703666  0.4455931388739254  0.01986396834553439  1.0000
  C   C32       1.0  0.9815288195102477  0.4457023253187218  0.904189543593938  1.0000
  C   C33       1.0  0.9026353020224985  0.4430408162876034  0.9071385114761328  1.0000
  C   C34       1.0  0.8637210421321357  0.44130935958113904  0.027784306557177008  1.0000
  C   C35       1.0  0.10485659031596084  0.44991322857258753  0.014369276846630585  1.0000
  O   O3        1.0  0.13797229822822255  0.5114279638342594  0.9183119186326825  1.0000
  C   C36       1.0  0.15062531933539525  0.3844402592340792  0.11774551134237332  1.0000
  C   C37       1.0  0.22125105241678122  0.43661684593101624  0.14557514261802096  1.0000
  C   C38       1.0  0.2651883451356065  0.374748789263017  0.24178494733210165  1.0000
  C   C39       1.0  0.23941972970329362  0.25981656511159557  0.3103333038033891  1.0000
  C   C40       1.0  0.1697898780718552  0.20621717291954877  0.28243430863962704  1.0000
  C   C41       1.0  0.1256384811520166  0.26770130739672116  0.18633646119421998  1.0000
  H   H21       1.0  0.7538391478699548  0.4396620845550816  0.3609271670172636  1.0000
  H   H22       1.0  0.012318694237168915  0.44937276520143343  0.2286057379372397  1.0000
  H   H23       1.0  0.01214269609022911  0.44661733732635533  0.8118177400417195  1.0000
  H   H24       1.0  0.8028745016474178  0.4391664198150318  0.03080801531082078  1.0000
  H   H25       1.0  0.87232814840953  0.44312339188356265  0.5807296597641303  1.0000
  H   H26       1.0  0.24212920650959058  0.5257991386962595  0.0936796469975616  1.0000
  H   H27       1.0  0.3192762455116509  0.41594735242432646  0.2631521003484998  1.0000
  H   H28       1.0  0.2735367497960588  0.2120169117585342  0.38468909952724517  1.0000
  H   H29       1.0  0.1501344865033165  0.11660866351020549  0.3349017915470045  1.0000
  H   H30       1.0  0.07245192092764108  0.22324239297630522  0.16474094970270547  1.0000
  Zn  Zn1       1.0  0.8203899975955329  0.44097123999022614  0.529586432843667  1.0000
  Zn  Zn2       1.0  0.9850233239284032  0.44496676795804535  0.5219438650864343  1.0000
  C   C42       1.0  0.9026607802899034  0.43783993914064023  0.7629627529221976  1.0000
  C   C43       1.0  0.9027543393796146  0.4480997511316476  0.28856758916100644  1.0000
  C   C44       1.0  0.9027623866390283  0.6801676343362664  0.5206107547397218  1.0000
  C   C45       1.0  0.9026526764773722  0.2057704942358527  0.5309196590557561  1.0000
  O   O4        1.0  0.9652214758476555  0.45135612307682416  0.33405391570318566  1.0000
  O   O5        1.0  0.9651465289990018  0.4376151006507045  0.7116755203541731  1.0000
  O   O6        1.0  0.9652277349191631  0.6332977589857871  0.5159746063562769  1.0000
  O   O7        1.0  0.9651402137705762  0.25567347265060936  0.5297547349339962  1.0000
  O   O8        1.0  0.8402730515720873  0.6302645339355979  0.5217755655973071  1.0000
  O   O9        1.0  0.8401918460237705  0.43458343593861826  0.7174764104841318  1.0000
  O   O10       1.0  0.8402667932186633  0.4483244128162689  0.3398532444083857  1.0000
  O   O11       1.0  0.8401855311172289  0.25264175311912096  0.5355541610074845  1.0000
