data_image0
_chemical_formula_structural       NC9NC5H8C7OC3FC3H9C6SCOC6H10Zn2C4O8
_chemical_formula_sum              "N2 C44 H27 O10 F1 S1 Zn2"
_cell_length_a       17.807436237873137
_cell_length_b       10.29937835083307
_cell_length_c       10.302041481415108
_cell_angle_alpha    85.53259314287666
_cell_angle_beta     89.38796050765288
_cell_angle_gamma    88.41049276798935

_space_group_name_H-M_alt    "P 1"
_space_group_IT_number       1

loop_
  _space_group_symop_operation_xyz
  'x, y, z'

loop_
  _atom_site_type_symbol
  _atom_site_label
  _atom_site_symmetry_multiplicity
  _atom_site_fract_x
  _atom_site_fract_y
  _atom_site_fract_z
  _atom_site_occupancy
  N   N1        1.0  0.7077534113402244  0.3882937415932337  0.5572205336853817  1.0000
  C   C1        1.0  0.6471589965331599  0.35310672391978826  0.5462044394960939  1.0000
  C   C2        1.0  0.5717862044046476  0.30933794893697253  0.5325016144309289  1.0000
  C   C3        1.0  0.5536839266992778  0.23795677872617738  0.42753222727483187  1.0000
  C   C4        1.0  0.4805008149499501  0.19534919980685905  0.4141450737398902  1.0000
  C   C5        1.0  0.4243711853100669  0.2237452610162547  0.5056949213868249  1.0000
  C   C6        1.0  0.3465964235548366  0.17857926997726237  0.49154988309220493  1.0000
  C   C7        1.0  0.2844360545283678  0.2603290315663611  0.5174705497593741  1.0000
  C   C8        1.0  0.2111105952853999  0.21751840362871233  0.5040971060409891  1.0000
  C   C9        1.0  0.1479006811369845  0.30195947474295437  0.5303811792227047  1.0000
  N   N2        1.0  0.0970928972699264  0.3698442535727453  0.5515128486373841  1.0000
  C   C10       1.0  0.1993619076545752  0.09270003494717316  0.46477769145651715  1.0000
  C   C11       1.0  0.2606649043010257  0.010936423519158911  0.4388486390326338  1.0000
  C   C12       1.0  0.333870857328414  0.053352567913802496  0.45201964886905444  1.0000
  C   C13       1.0  0.4431649617986095  0.295620737438155  0.6108834145863185  1.0000
  C   C14       1.0  0.5164009112491446  0.33803796960952726  0.6241149801058268  1.0000
  H   H1        1.0  0.5960768822144838  0.21549550483789437  0.3558382255567598  1.0000
  H   H2        1.0  0.4675802480739959  0.14169377326315935  0.3312506129024422  1.0000
  H   H3        1.0  0.29295265007933  0.35778696657224063  0.5463262589510316  1.0000
  H   H4        1.0  0.142890221450016  0.05866658896998311  0.45419036580048977  1.0000
  H   H5        1.0  0.2514501793715234  0.9142990253778742  0.40879264611005905  1.0000
  H   H6        1.0  0.3804987702787818  0.9876120762325217  0.4329855449788791  1.0000
  H   H7        1.0  0.4014887260738318  0.3175425008752122  0.6838717233333003  1.0000
  H   H8        1.0  0.5298501200462068  0.392914376842759  0.7059678455503444  1.0000
  C   C15       1.0  0.9023475568697084  0.9976876025865564  0.554431822893791  1.0000
  C   C16       1.0  0.8239655086472834  0.0014151628802157035  0.5395595452567157  1.0000
  C   C17       1.0  0.7843363299233796  0.8860114309338432  0.5335368122497381  1.0000
  C   C18       1.0  0.8241492042402324  0.7661624528375255  0.5395637260865322  1.0000
  C   C19       1.0  0.9025059098793364  0.7604401130958902  0.5543127328684749  1.0000
  C   C20       1.0  0.9411285160024738  0.8767452190717484  0.5620036392595071  1.0000
  C   C21       1.0  0.7016631787218718  0.8899059358995144  0.5164584479037053  1.0000
  O   O1        1.0  0.6726480846339997  0.8066139695697803  0.45023711971479474  1.0000
  C   C22       1.0  0.651905921393731  0.9881910868873137  0.5745144811546661  1.0000
  C   C23       1.0  0.58498738647958  0.0313827736370651  0.5117283444910876  1.0000
  C   C24       1.0  0.5372631549011806  0.12288205626600113  0.566477259029667  1.0000
  F   F1        1.0  0.4731652454860349  0.1646317828219297  0.5047109047854748  1.0000
  C   C25       1.0  0.5555437583471607  0.1712707037330754  0.684788870304591  1.0000
  C   C26       1.0  0.6213837271560437  0.1278773498024217  0.7488051206288022  1.0000
  C   C27       1.0  0.6692632831077641  0.03644217196971011  0.6944585542995254  1.0000
  H   H9        1.0  0.050394938927966315  0.1981224461022002  0.5804999841096836  1.0000
  H   H10       1.0  0.7937382684623567  0.09436207306259092  0.531191428973782  1.0000
  H   H11       1.0  0.7937362782573831  0.6771371655420663  0.5339585641594238  1.0000
  H   H12       1.0  0.0015552503212961089  0.8730675440257293  0.5734683181637572  1.0000
  H   H13       1.0  0.9326777232369571  0.4308670570914844  0.558881760588565  1.0000
  H   H14       1.0  0.5700228182620375  0.9951225708225849  0.4198091433925111  1.0000
  H   H15       1.0  0.5185793607917566  0.24199555301926434  0.7272007450179723  1.0000
  H   H16       1.0  0.6351868589071619  0.16467967686667606  0.8409548725720284  1.0000
  H   H17       1.0  0.7193279733173376  0.0024891097434240894  0.7468653641572363  1.0000
  C   C28       1.0  0.9024408527467197  0.37919245034812965  0.17308501809888455  1.0000
  C   C29       1.0  0.9369073511575855  0.5006626151332596  0.16164792630545444  1.0000
  C   C30       1.0  0.9543908709813261  0.5605627030534013  0.03899701286185775  1.0000
  C   C31       1.0  0.9369785672557187  0.5002553615060041  0.926541532191429  1.0000
  C   C32       1.0  0.9024126511368773  0.3789352173878635  0.9356595620232184  1.0000
  C   C33       1.0  0.8853781440631715  0.3189752952845255  0.05949732546217623  1.0000
  S   S1        1.0  0.9990915302132497  0.7149837493456694  0.025795211302514165  1.0000
  C   C34       1.0  0.09162071197079569  0.6407955705234607  0.027017849855433207  1.0000
  O   O2        1.0  0.12101655303443759  0.61622890571075  0.9195301947181105  1.0000
  C   C35       1.0  0.1330226512953916  0.607489717448068  0.14994021261328494  1.0000
  C   C36       1.0  0.199651887438419  0.5306060227595968  0.1491670005116461  1.0000
  C   C37       1.0  0.23880122852257046  0.49785286682587504  0.2645498832216262  1.0000
  C   C38       1.0  0.21211868566190817  0.541466504995656  0.38187213250448004  1.0000
  C   C39       1.0  0.14629685315799823  0.6181531223335839  0.38401379933340474  1.0000
  C   C40       1.0  0.10692335348311932  0.651291050241193  0.2689335514497375  1.0000
  H   H18       1.0  0.8373649709111544  0.1503608830296339  0.40195193188693046  1.0000
  H   H19       1.0  0.9504131823961053  0.5489523852540503  0.2477567766219504  1.0000
  H   H20       1.0  0.9508027550640489  0.5481985020502731  0.8323600660725945  1.0000
  H   H21       1.0  0.8588086744279159  0.22533015414139235  0.06739392777088193  1.0000
  H   H22       1.0  0.8894757909085694  0.3326297083958112  0.6117971317787698  1.0000
  H   H23       1.0  0.22134541226420512  0.49511873984117627  0.05953560089639898  1.0000
  H   H24       1.0  0.2898564781755739  0.43844674042827614  0.2629631308390492  1.0000
  H   H25       1.0  0.24249260548375284  0.5159750360604456  0.4710926078780806  1.0000
  H   H26       1.0  0.12576958564003582  0.6521980460940286  0.4749823522528209  1.0000
  H   H27       1.0  0.05643841302688446  0.7116122468320465  0.2737390574944143  1.0000
  Zn  Zn1       1.0  0.8201083745933655  0.38296614995056943  0.5555809287985523  1.0000
  Zn  Zn2       1.0  0.9847379132264849  0.3751612550990415  0.553163129503085  1.0000
  C   C41       1.0  0.9024152120451909  0.37381009055972614  0.791517452016657  1.0000
  C   C42       1.0  0.9024328738596168  0.38431886789020275  0.3172267070659822  1.0000
  C   C43       1.0  0.9024723140106199  0.6162655587797317  0.5491612315899621  1.0000
  C   C44       1.0  0.9023757153911007  0.14186184195713558  0.5595829977851414  1.0000
  O   O3        1.0  0.9649062468330404  0.3830717576026976  0.36468443328644384  1.0000
  O   O4        1.0  0.9648918494364929  0.3691324866198171  0.7422242984619944  1.0000
  O   O5        1.0  0.9649371177386967  0.564918382948044  0.5465199479152056  1.0000
  O   O6        1.0  0.9648609223594594  0.18728587326111135  0.5603886873029948  1.0000
  O   O7        1.0  0.83998530928041  0.5708415344533435  0.5483553718168885  1.0000
  O   O8        1.0  0.8399400413013118  0.375057198503022  0.744059652889459  1.0000
  O   O9        1.0  0.8399544387962063  0.3889964247526454  0.36651822665387956  1.0000
  O   O10       1.0  0.8399091143140214  0.193210531089262  0.5622225780189147  1.0000
