data_image0
_chemical_formula_structural       NC10NC3NH7C6NCOC6H11C6NCOC6H11Zn2C4O8
_chemical_formula_sum              "N5 C43 H29 O10 Zn2"
_cell_length_a       19.210446455230148
_cell_length_b       10.29965916528486
_cell_length_c       10.299662537453274
_cell_angle_alpha    85.55779495060091
_cell_angle_beta     89.97714991374127
_cell_angle_gamma    89.96405462056514

_space_group_name_H-M_alt    "P 1"
_space_group_IT_number       1

loop_
  _space_group_symop_operation_xyz
  'x, y, z'

loop_
  _atom_site_type_symbol
  _atom_site_label
  _atom_site_symmetry_multiplicity
  _atom_site_fract_x
  _atom_site_fract_y
  _atom_site_fract_z
  _atom_site_occupancy
  N   N1        1.0  0.6558729431945581  0.42069432396585626  0.56781696910882  1.0000
  C   C1        1.0  0.5956445399227729  0.4229016643194199  0.568048926175994  1.0000
  C   C2        1.0  0.5208402814798303  0.42563836223644125  0.5683362927977318  1.0000
  C   C3        1.0  0.48523671189369727  0.5418584906188948  0.5834907051157476  1.0000
  C   C4        1.0  0.4125712493065686  0.5420100427048671  0.5834381623284088  1.0000
  C   C5        1.0  0.375673571906347  0.4263472680102869  0.5684230358890701  1.0000
  C   C6        1.0  0.2983513566224879  0.4249909031937975  0.5682719467623687  1.0000
  C   C7        1.0  0.2606115963393735  0.5285824514652959  0.5049471069849063  1.0000
  C   C8        1.0  0.1878331471406987  0.5271803169127947  0.5048375194720809  1.0000
  C   C9        1.0  0.151793071886232  0.4224441541110433  0.5680018682121006  1.0000
  C   C10       1.0  0.0768634684961214  0.4211421758392073  0.567864562412568  1.0000
  N   N2        1.0  0.0166255491695269  0.4200953410878423  0.5677542034099738  1.0000
  C   C11       1.0  0.1888091867361567  0.3189783034047886  0.6313017450605167  1.0000
  C   C12       1.0  0.2615894590127598  0.32010616061594455  0.6314614790098045  1.0000
  C   C13       1.0  0.4138871098345133  0.31194721261118374  0.5535574563451413  1.0000
  N   N3        1.0  0.48465722273868866  0.31439202879552086  0.5537239136189531  1.0000
  H   H1        1.0  0.5133431013776794  0.6312839296140065  0.595571931025936  1.0000
  H   H2        1.0  0.3853077202750748  0.6320167736645443  0.5969143425818717  1.0000
  H   H3        1.0  0.2873500487217837  0.6098528433228607  0.45398544902789184  1.0000
  H   H4        1.0  0.1596977101077321  0.6076225097901433  0.45520597065901813  1.0000
  H   H5        1.0  0.1614312307358098  0.23757278978891572  0.6808334563296845  1.0000
  H   H6        1.0  0.2890798858564583  0.23978258093713078  0.6825308167589019  1.0000
  H   H7        1.0  0.3876163857122017  0.22107761209240095  0.5400347135520931  1.0000
  C   C14       1.0  0.8361913567364637  0.03903430127615226  0.5676701189193376  1.0000
  C   C15       1.0  0.8366817720257519  0.04836575272139476  0.4308535233562869  1.0000
  C   C16       1.0  0.8379552753751369  0.9362288979569997  0.36201744623934706  1.0000
  C   C17       1.0  0.8368128882238053  0.8131751310524841  0.43114988596717585  1.0000
  C   C18       1.0  0.8363137706008668  0.8017453559985688  0.5679122592359014  1.0000
  C   C19       1.0  0.8362507679235387  0.9152826797525754  0.6354003914648236  1.0000
  N   N4        1.0  0.8373873155732825  0.9493551771119312  0.2219508843077742  1.0000
  C   C20       1.0  0.8700268320664336  0.8582020309137748  0.1422187941335591  1.0000
  O   O1        1.0  0.9180410277249108  0.7852860345855224  0.18918865851832734  1.0000
  C   C21       1.0  0.8498112633575091  0.8520909185908916  0.0038555667183286513  1.0000
  C   C22       1.0  0.785450425592931  0.9020724721254387  0.9575208256403962  1.0000
  C   C23       1.0  0.7668141093468308  0.8951390527910447  0.8270009608625695  1.0000
  C   C24       1.0  0.811890398210472  0.8380093234161783  0.7415361918104191  1.0000
  C   C25       1.0  0.8756386382390157  0.7872417825881931  0.7864948153224209  1.0000
  C   C26       1.0  0.8945407076211338  0.7938184674084684  0.9169101589141468  1.0000
  H   H8        1.0  0.8346018753291501  0.2286971458607836  0.8257501911040419  1.0000
  H   H9        1.0  0.8366084925105503  0.142995389284857  0.3770303632258887  1.0000
  H   H10       1.0  0.835090875517065  0.7264072205049229  0.3783446767319527  1.0000
  H   H11       1.0  0.8358820209027444  0.9072237802663183  0.7408705457551952  1.0000
  H   H12       1.0  0.8351962217966172  0.4699133503723503  0.6203741121182591  1.0000
  H   H13       1.0  0.8175316127934218  0.03553833870756562  0.17601376625232268  1.0000
  H   H14       1.0  0.7489653544569579  0.944805639079539  0.02200972840923754  1.0000
  H   H15       1.0  0.7172097778138012  0.9336677976248267  0.792223740637878  1.0000
  H   H16       1.0  0.797325712271023  0.832714138796123  0.6405809192621934  1.0000
  H   H17       1.0  0.9104769402998851  0.7427162383708501  0.7202424743937601  1.0000
  H   H18       1.0  0.9443196335257348  0.7541041466821828  0.9494686338067879  1.0000
  C   C27       1.0  0.8363005094707981  0.4205302902390835  0.18641525465710385  1.0000
  C   C28       1.0  0.9073638956465905  0.4527861091030696  0.18259918532336106  1.0000
  C   C29       1.0  0.9433668223471283  0.46715106946958906  0.06399283694002977  1.0000
  C   C30       1.0  0.9072420415440912  0.45247624547361376  0.9474558114980463  1.0000
  C   C31       1.0  0.8362046497060878  0.42024938706360193  0.9491671384156359  1.0000
  C   C32       1.0  0.8011943110894955  0.4040137322838433  0.06921508403051546  1.0000
  N   N5        1.0  0.015858715707696813  0.5021154616580876  0.06350778877876162  1.0000
  C   C33       1.0  0.06511804755330264  0.4621845812977756  0.9692735618414354  1.0000
  O   O2        1.0  0.052406156770403056  0.3636498054643851  0.9076929618281144  1.0000
  C   C34       1.0  0.13196210645469764  0.5324006484944177  0.946933826784186  1.0000
  C   C35       1.0  0.14038051092759263  0.6604538971059082  0.9833268401572588  1.0000
  C   C36       1.0  0.20354048569491723  0.7259030234116617  0.96114607480119  1.0000
  C   C37       1.0  0.2587883834585121  0.6647857205093011  0.9021422510898911  1.0000
  C   C38       1.0  0.2509350552934666  0.5381778827916124  0.8647436307431327  1.0000
  C   C39       1.0  0.18789369316313942  0.4722715382099083  0.8865951508753738  1.0000
  H   H19       1.0  0.7020909611135527  0.3608914073280316  0.40078446025451897  1.0000
  H   H20       1.0  0.9352554083631098  0.4659586610782618  0.2720189055555373  1.0000
  H   H21       1.0  0.9342058566297646  0.4683950236333301  0.8553429884272399  1.0000
  H   H22       1.0  0.7464146476823855  0.37913117643784977  0.07129272543692333  1.0000
  H   H23       1.0  0.8087302343473863  0.40956821707173785  0.6222449388098745  1.0000
  H   H24       1.0  0.03486375462823976  0.5492866192649517  0.14244206162598205  1.0000
  H   H25       1.0  0.09809283730093754  0.7110581414404087  0.027124095990715524  1.0000
  H   H26       1.0  0.20954443369315268  0.8243702859159061  0.98929215450632  1.0000
  H   H27       1.0  0.3076054230092058  0.7156816046289851  0.8850324290834819  1.0000
  H   H28       1.0  0.29373780645691516  0.4909900133926499  0.8187503896682409  1.0000
  H   H29       1.0  0.18308257408394213  0.3740249111141767  0.8570738969361238  1.0000
  Zn  Zn1       1.0  0.7599783502554672  0.42051800370700065  0.5678063543895953  1.0000
  Zn  Zn2       1.0  0.9125201231330496  0.42026107511490474  0.567775450742591  1.0000
  C   C40       1.0  0.8362203680508331  0.415128933392128  0.804989063907223  1.0000
  C   C41       1.0  0.8362797713360908  0.4256517811607665  0.33059286887655315  1.0000
  C   C42       1.0  0.8362877083280515  0.657578671277689  0.5626912418076022  1.0000
  C   C43       1.0  0.8362123787478803  0.18320048306907988  0.5728907597312352  1.0000
  O   O3        1.0  0.894161618348145  0.42726743162083514  0.3789684637155353  1.0000
  O   O4        1.0  0.8941141969662413  0.41331730051227766  0.7565896397512402  1.0000
  O   O5        1.0  0.8941677945531595  0.6090985308673851  0.5609324346953373  1.0000
  O   O6        1.0  0.8941079687227843  0.23148621067927788  0.57462557140847  1.0000
  O   O7        1.0  0.7783904526107128  0.6092928682317207  0.560956233727431  1.0000
  O   O8        1.0  0.778336855279767  0.41351319817183274  0.7566133700319877  1.0000
  O   O9        1.0  0.7783842768969806  0.42746328460034766  0.3789906325524319  1.0000
  O   O10       1.0  0.7783306272550427  0.2316820543343341  0.5746478376120503  1.0000
