data_image0
_chemical_formula_structural       NC12NC2H8C7OC6H10C7OC3NC3H11Zn2C4O8
_chemical_formula_sum              "N3 C44 H29 O10 Zn2"
_cell_length_a       19.240039667572717
_cell_length_b       10.299379429549807
_cell_length_c       10.298749378158432
_cell_angle_alpha    85.5342726072926
_cell_angle_beta     90.00886307587598
_cell_angle_gamma    89.99618039744932

_space_group_name_H-M_alt    "P 1"
_space_group_IT_number       1

loop_
  _space_group_symop_operation_xyz
  'x, y, z'

loop_
  _atom_site_type_symbol
  _atom_site_label
  _atom_site_symmetry_multiplicity
  _atom_site_fract_x
  _atom_site_fract_y
  _atom_site_fract_z
  _atom_site_occupancy
  N   N1        1.0  0.6543077236323419  0.42147708423414265  0.5668319927204302  1.0000
  C   C1        1.0  0.5941593548052757  0.4214771682271743  0.5668319107471671  1.0000
  C   C2        1.0  0.5193413176485526  0.42147728553121633  0.5668317733898445  1.0000
  C   C3        1.0  0.48287847057198974  0.3569995702780002  0.6702750177867507  1.0000
  C   C4        1.0  0.4102077335990768  0.3568886752270384  0.6703616060872917  1.0000
  C   C5        1.0  0.37300908268905913  0.421477378120791  0.5668315456566686  1.0000
  C   C6        1.0  0.41018611017568846  0.4860662679958656  0.4633016797175804  1.0000
  C   C7        1.0  0.4828568097850544  0.4859551374212425  0.46338839061131853  1.0000
  C   C8        1.0  0.2958039922443394  0.4214772994628695  0.5668314502606087  1.0000
  C   C9        1.0  0.2586236960873042  0.3082062884729193  0.6087451195360458  1.0000
  C   C10       1.0  0.18595299632180276  0.30831320266397677  0.6086537492353423  1.0000
  C   C11       1.0  0.1494717053308003  0.4214771702772302  0.5668315112209648  1.0000
  C   C12       1.0  0.0746536682005036  0.4214770565068675  0.5668317599421699  1.0000
  N   N2        1.0  0.0145053513671231  0.4214770156635048  0.5668319683931682  1.0000
  C   C13       1.0  0.18593792518932198  0.5346412137270227  0.5250092202850065  1.0000
  C   C14       1.0  0.2586086100059367  0.5347483080633093  0.5249176873134178  1.0000
  H   H1        1.0  0.5106018059359152  0.30707946412081255  0.751040417365836  1.0000
  H   H2        1.0  0.3831229601151259  0.3077666083581845  0.7522423280154344  1.0000
  H   H3        1.0  0.3830843528663336  0.5351883619230056  0.3814209069273369  1.0000
  H   H4        1.0  0.5105632459106326  0.5358751432869153  0.3826232668856324  1.0000
  H   H5        1.0  0.2857227363218307  0.21904299127816818  0.6399463709563251  1.0000
  H   H6        1.0  0.1582439728297206  0.2200490526422476  0.6408877408596636  1.0000
  H   H7        1.0  0.1582171252356958  0.6229053392092194  0.49277524322087696  1.0000
  H   H8        1.0  0.2856960485820845  0.6239116844431309  0.4937163910903015  1.0000
  C   C15       1.0  0.8344174717654871  0.040085145088223806  0.5669860419995438  1.0000
  C   C16       1.0  0.8765582214218043  0.03018861584254018  0.6787404228644691  1.0000
  C   C17       1.0  0.8971613854708651  0.9079577732536871  0.7359573393033587  1.0000
  C   C18       1.0  0.8764736001981822  0.7949665629410179  0.6784641188097909  1.0000
  C   C19       1.0  0.8344022825424425  0.8028589936821555  0.5666891111652748  1.0000
  C   C20       1.0  0.8134673145633815  0.9258922469683741  0.5117955708607118  1.0000
  C   C21       1.0  0.9422624203987109  0.897424661037628  0.853164010343249  1.0000
  O   O1        1.0  0.9863564855122945  0.8066373470149373  0.8655211695394847  1.0000
  C   C22       1.0  0.9373376898270775  0.9897830523140496  0.9563568619590646  1.0000
  C   C23       1.0  0.9967937486048151  0.019242736086072965  0.027925112492684923  1.0000
  C   C24       1.0  0.992497188735409  0.1049953551560685  0.12642510435401666  1.0000
  C   C25       1.0  0.9288331312149913  0.16128694316531145  0.15518559724858327  1.0000
  C   C26       1.0  0.8692707053583508  0.1315182324600328  0.08586162152673893  1.0000
  C   C27       1.0  0.8732881531406814  0.04584527248259507  0.9872739559092318  1.0000
  H   H9        1.0  0.7557722803385453  0.2661709192202639  0.354938031290964  1.0000
  H   H10       1.0  0.8940447105091418  0.11777362484876797  0.7205806956535032  1.0000
  H   H11       1.0  0.8927475141886801  0.7006620767919417  0.7219047170072546  1.0000
  H   H12       1.0  0.7809802994852938  0.9327176324048134  0.42564076027574704  1.0000
  H   H13       1.0  0.8187240568526979  0.47848343923142356  0.5231181159390514  1.0000
  H   H14       1.0  0.046652008172630044  0.9767990718596039  0.006876125477286221  1.0000
  H   H15       1.0  0.03857352782483736  0.12776168895835927  0.18052538992629175  1.0000
  H   H16       1.0  0.9256021339816941  0.22755195677969486  0.2315325699314752  1.0000
  H   H17       1.0  0.819859841051532  0.17440049990838102  0.1089105904347819  1.0000
  H   H18       1.0  0.8262522329846556  0.022393823448689787  0.9363336632903185  1.0000
  C   C28       1.0  0.8343778191950062  0.42150007078972407  0.18543651352296742  1.0000
  C   C29       1.0  0.8723398086486694  0.5383717227964036  0.17537133076502287  1.0000
  C   C30       1.0  0.890838307589383  0.5982710541053313  0.05304268438919002  1.0000
  C   C31       1.0  0.8723425699057707  0.5384205871069925  0.9401272823228877  1.0000
  C   C32       1.0  0.8344419107144552  0.4214440351339679  0.9482386450745368  1.0000
  C   C33       1.0  0.8155403839445615  0.363906672542589  0.071315087948149  1.0000
  C   C34       1.0  0.9314895152513349  0.7210462536408639  0.04231475190455347  1.0000
  O   O2        1.0  0.97491733308401  0.7393901306663584  0.950960690784107  1.0000
  C   C35       1.0  0.9228756995079676  0.8230030875697101  0.13516475209961887  1.0000
  C   C36       1.0  0.8578534009612361  0.8455784376727453  0.1918602426730598  1.0000
  C   C37       1.0  0.8500770313253374  0.9430862239989066  0.27852256249749363  1.0000
  N   N3        1.0  0.7839051165891493  0.9649391550983051  0.33618621995488085  1.0000
  C   C38       1.0  0.9074265348658442  0.019341827765088748  0.30789054455990494  1.0000
  C   C39       1.0  0.9719011029901178  0.9987172441043568  0.2507349605961009  1.0000
  C   C40       1.0  0.9796374132441362  0.9015211466979423  0.16444932408497048  1.0000
  H   H19       1.0  0.7635694840470006  0.1996564418413973  0.4118955651523657  1.0000
  H   H20       1.0  0.8882115660843627  0.58222011706073  0.26290041043762136  1.0000
  H   H21       1.0  0.8869994815829996  0.5839452348496956  0.845703246342008  1.0000
  H   H22       1.0  0.7862818492986482  0.2738173251464655  0.07832173836281564  1.0000
  H   H23       1.0  0.7630803375558237  0.20017942898792995  0.7562808574229511  1.0000
  H   H24       1.0  0.813009849104342  0.7885678540010883  0.16783944453723865  1.0000
  H   H25       1.0  0.7408084751073541  0.9086637913067661  0.3149801286997931  1.0000
  H   H26       1.0  0.7775355981704494  0.03746181907037638  0.4006457139803974  1.0000
  H   H27       1.0  0.9020844556246891  0.09496063302952651  0.37459417524231076  1.0000
  H   H28       1.0  0.016002110795974245  0.058187789136284085  0.2733481572840861  1.0000
  H   H29       1.0  0.030129587414414294  0.8868755810898474  0.12145455453106613  1.0000
  Zn  Zn1       1.0  0.7582529881695919  0.42147359648498384  0.5668394761070374  1.0000
  Zn  Zn2       1.0  0.9105601067028574  0.42146990851534905  0.5668350889238953  1.0000
  C   C41       1.0  0.8344283635712578  0.4162806556432852  0.8040547251225927  1.0000
  C   C42       1.0  0.8343863944682616  0.4266644880258068  0.3296199666997319  1.0000
  C   C43       1.0  0.834401137396377  0.6586788721465058  0.5615696364975011  1.0000
  C   C44       1.0  0.8344135687082703  0.18426471112209364  0.5721051251781981  1.0000
  O   O3        1.0  0.8921890302493211  0.42839064797945126  0.378007588010441  1.0000
  O   O4        1.0  0.8922233065982097  0.4145507168518954  0.7556634005452338  1.0000
  O   O5        1.0  0.8922005420627953  0.6102903421417947  0.5598549753550051  1.0000
  O   O6        1.0  0.8922117428042631  0.23265103198874337  0.5738159158156728  1.0000
  O   O7        1.0  0.7766013000932409  0.610292473014262  0.5598586492099247  1.0000
  O   O8        1.0  0.7766240645885821  0.4145544081275274  0.7556670045414446  1.0000
  O   O9        1.0  0.7765897881555784  0.42839429411105057  0.37800963049194225  1.0000
  O   O10       1.0  0.7766125007160476  0.23265466882382402  0.5738180556768364  1.0000
