data_image0
_chemical_formula_structural       NC10NC3NH7C7OC3NC3H11C7OC6OCH12Zn2C4O8
_chemical_formula_sum              "N4 C44 H30 O11 Zn2"
_cell_length_a       19.210446455230148
_cell_length_b       10.298746005989749
_cell_length_c       10.299362532796529
_cell_angle_alpha    85.58216748152913
_cell_angle_beta     90.00583596421428
_cell_angle_gamma    89.95621662588981

_space_group_name_H-M_alt    "P 1"
_space_group_IT_number       1

loop_
  _space_group_symop_operation_xyz
  'x, y, z'

loop_
  _atom_site_type_symbol
  _atom_site_label
  _atom_site_symmetry_multiplicity
  _atom_site_fract_x
  _atom_site_fract_y
  _atom_site_fract_z
  _atom_site_occupancy
  N   N1        1.0  0.6553846738200857  0.4198687824305696  0.5674849542269642  1.0000
  C   C1        1.0  0.5951561708018434  0.4220765211606756  0.567716336778977  1.0000
  C   C2        1.0  0.5203517886331865  0.4248137128427554  0.5680029911122948  1.0000
  C   C3        1.0  0.48474375598625047  0.5410568287906301  0.5831270840297884  1.0000
  C   C4        1.0  0.4120782681909714  0.5412083613865826  0.5830745034318705  1.0000
  C   C5        1.0  0.3751850503096167  0.42552275493795655  0.5680895494008831  1.0000
  C   C6        1.0  0.2978628940235193  0.4241661394736571  0.567938813506093  1.0000
  C   C7        1.0  0.2600985531080943  0.5277256134855095  0.5045887831588083  1.0000
  C   C8        1.0  0.187320177393751  0.5263232517080254  0.5044795596849705  1.0000
  C   C9        1.0  0.1513047237128188  0.42161892907902776  0.5676693978691478  1.0000
  C   C10       1.0  0.0763751790262837  0.4203167154946781  0.5675324309534588  1.0000
  N   N2        1.0  0.0161373069099559  0.41926969157109917  0.5674223444240405  1.0000
  C   C11       1.0  0.1883454032792618  0.31818514920335494  0.6309944334827844  1.0000
  C   C12       1.0  0.261125635641059  0.3193132381638417  0.6311538728952797  1.0000
  C   C13       1.0  0.4134029952158087  0.31110010720893166  0.5532538132088503  1.0000
  N   N3        1.0  0.4841729733870299  0.3135453027455404  0.5534196363180317  1.0000
  H   H1        1.0  0.5128468241785038  0.630500243344132  0.5951849706701158  1.0000
  H   H2        1.0  0.3848117492750848  0.6312340853642975  0.5965271612750342  1.0000
  H   H3        1.0  0.286817377656828  0.608969965425709  0.45360739311026244  1.0000
  H   H4        1.0  0.1591655299560718  0.6067402247137308  0.45482846050697767  1.0000
  H   H5        1.0  0.1609867015880556  0.23680468255347775  0.6805459458117915  1.0000
  H   H6        1.0  0.2886356497280721  0.2390158748806126  0.6822426961091195  1.0000
  H   H7        1.0  0.3871353117981512  0.2202113881214396  0.5397548163562202  1.0000
  C   C14       1.0  0.8357310491391124  0.038167216351326916  0.56743648654349  1.0000
  C   C15       1.0  0.8682766296857345  0.046582508274165546  0.44492821805921223  1.0000
  C   C16       1.0  0.8840011701053562  0.9337153243204274  0.38229324777315155  1.0000
  C   C17       1.0  0.8682771445941755  0.8113458921796279  0.44487908153066114  1.0000
  C   C18       1.0  0.8357975715219516  0.8009613118860469  0.5674820289959992  1.0000
  C   C19       1.0  0.8195630387291367  0.9149373581642459  0.6278283365637414  1.0000
  C   C20       1.0  0.9189607383084117  0.9424094747031954  0.2534733823940214  1.0000
  O   O1        1.0  0.9614587501088535  0.85435334530148  0.2282540904986512  1.0000
  C   C21       1.0  0.9057104702547444  0.050938977821029185  0.15327133077263766  1.0000
  C   C22       1.0  0.839795713233325  0.11043688057840373  0.14117548473884467  1.0000
  C   C23       1.0  0.827584268895397  0.21209932367285167  0.04527209350714534  1.0000
  N   N4        1.0  0.7605553426009045  0.27244154317239255  0.03407980487025042  1.0000
  C   C24       1.0  0.8813304474469479  0.2538709592754109  0.9601297510136906  1.0000
  C   C25       1.0  0.9466095453776427  0.19420878906651562  0.9703696610965995  1.0000
  C   C26       1.0  0.9587668016840752  0.09297081845776689  0.06596885794942509  1.0000
  H   H8        1.0  0.7752013661575832  0.22956029017079937  0.7997794212618783  1.0000
  H   H9        1.0  0.8821128040283395  0.14106241247784923  0.39870465077413964  1.0000
  H   H10       1.0  0.8808245426299002  0.7241191150311018  0.39717967593087056  1.0000
  H   H11       1.0  0.7944797037614618  0.907698605639861  0.7222619207562011  1.0000
  H   H12       1.0  0.7746893459180988  0.5740212226635802  0.7993365450801142  1.0000
  H   H13       1.0  0.7976502957812245  0.07712203076966873  0.20514453898961915  1.0000
  H   H14       1.0  0.7201195974195956  0.24207359532912598  0.09703711468849807  1.0000
  H   H15       1.0  0.7508884275972174  0.34805150358861825  0.9628440721945655  1.0000
  H   H16       1.0  0.8725473935102596  0.33221466617065976  0.8856451666145198  1.0000
  H   H17       1.0  0.9879017430882009  0.22648874649489503  0.9040684772449312  1.0000
  H   H18       1.0  0.009820299974998337  0.04824607408511472  0.0724874612646893  1.0000
  C   C27       1.0  0.835709979854538  0.4194437999725318  0.1860923876309435  1.0000
  C   C28       1.0  0.7696281337647811  0.36086797473793397  0.1893880065612541  1.0000
  C   C29       1.0  0.7359983451812344  0.3326479144649266  0.07387884221615071  1.0000
  C   C30       1.0  0.7698241757479269  0.3610312207930797  0.9541336824511499  1.0000
  C   C31       1.0  0.8358186610906698  0.4196846941339558  0.9488261582540636  1.0000
  C   C32       1.0  0.8683236260012314  0.4488082966920903  0.06534441788044765  1.0000
  C   C33       1.0  0.6665714439703796  0.26946020118220404  0.07968992104809836  1.0000
  O   O2        1.0  0.6523427413076403  0.1902705645869056  0.1755842209563523  1.0000
  C   C34       1.0  0.61328904437132  0.2961021374663457  0.976785944506974  1.0000
  C   C35       1.0  0.6079468270123829  0.4194939494958094  0.9089408443451994  1.0000
  C   C36       1.0  0.5569980976445614  0.4437601953555579  0.8132555438272453  1.0000
  C   C37       1.0  0.5101650050929406  0.3461654448215534  0.7842090269887265  1.0000
  C   C38       1.0  0.5147751884265771  0.2229684191897332  0.8529724817829769  1.0000
  C   C39       1.0  0.5657176686958303  0.19857497388240763  0.948730180795236  1.0000
  O   O3        1.0  0.4600576009751022  0.3754106937010011  0.6872349163155822  1.0000
  C   C40       1.0  0.4092964021716556  0.2857261802264077  0.6478657444705704  1.0000
  H   H19       1.0  0.9605251646853022  0.5294846958837502  0.3871816221376534  1.0000
  H   H20       1.0  0.7438529341399822  0.3381679245913547  0.28192520178355807  1.0000
  H   H21       1.0  0.7449382013582505  0.33599036298992235  0.8650824300196733  1.0000
  H   H22       1.0  0.9192337399221517  0.49405099840235  0.061982832692258905  1.0000
  H   H23       1.0  0.8612522779183487  0.4417023390182624  0.6193538651528896  1.0000
  H   H24       1.0  0.6426497478761004  0.4976936298679555  0.9307637031512948  1.0000
  H   H25       1.0  0.5536897923727719  0.5392331093608567  0.7616981857206859  1.0000
  H   H26       1.0  0.4792727363485578  0.14545591264935687  0.8332465784431085  1.0000
  H   H27       1.0  0.5683496470517534  0.10292129932507299  0.00017445325335874173  1.0000
  H   H28       1.0  0.376604187312656  0.3344796405468049  0.5697909297938368  1.0000
  H   H29       1.0  0.3753026642220989  0.25356690990428943  0.7314193922443026  1.0000
  H   H30       1.0  0.43523759058985234  0.20035596963376157  0.609200317207852  1.0000
  Zn  Zn1       1.0  0.7594900909707184  0.41969243576388804  0.5674743852105333  1.0000
  Zn  Zn2       1.0  0.9120318744115512  0.4194354581306323  0.5674435485287923  1.0000
  C   C41       1.0  0.8357961043192363  0.4144650456734962  0.8046528213545152  1.0000
  C   C42       1.0  0.8357275269756615  0.4246644842169618  0.33026523961171694  1.0000
  C   C43       1.0  0.8357806850635225  0.656775345360846  0.5622982885524503  1.0000
  C   C44       1.0  0.8357428940532872  0.18235262420110798  0.57261984156937  1.0000
  O   O4        1.0  0.8936222272931966  0.42631340563498465  0.3786392630733115  1.0000
  O   O5        1.0  0.8936770879179622  0.41262010425224016  0.7562550196624369  1.0000
  O   O6        1.0  0.8936638564974924  0.6082887374229138  0.5605520199646519  1.0000
  O   O7        1.0  0.8936354066484258  0.23064478181227366  0.5743421654080263  1.0000
  O   O8        1.0  0.7778865066788184  0.6084831121713528  0.5605757683349915  1.0000
  O   O9        1.0  0.7778997382223515  0.41281603941828915  0.7562786988808807  1.0000
  O   O10       1.0  0.777844877417475  0.42650929504789836  0.3786613808966992  1.0000
  O   O11       1.0  0.77785805678292  0.23084066196633035  0.5743643805981766  1.0000
