data_image0
_chemical_formula_structural       NC9NC5H8C7OC3OC4H12C7OC4NC3H9Zn2C4O8
_chemical_formula_sum              "N3 C46 H29 O11 Zn2"
_cell_length_a       17.807436237873137
_cell_length_b       10.299371110280156
_cell_length_c       10.299375074045738
_cell_angle_alpha    85.5574175690685
_cell_angle_beta     89.38493469783968
_cell_angle_gamma    88.40331171880233

_space_group_name_H-M_alt    "P 1"
_space_group_IT_number       1

loop_
  _space_group_symop_operation_xyz
  'x, y, z'

loop_
  _atom_site_type_symbol
  _atom_site_label
  _atom_site_symmetry_multiplicity
  _atom_site_fract_x
  _atom_site_fract_y
  _atom_site_fract_z
  _atom_site_occupancy
  N   N1        1.0  0.7076928393127725  0.38829648204377865  0.557495010788811  1.0000
  C   C1        1.0  0.6471013891345805  0.35311096026686295  0.5464594930935927  1.0000
  C   C2        1.0  0.5717322846784152  0.3093440460151533  0.5327325073216143  1.0000
  C   C3        1.0  0.5536385030018414  0.23796862839315724  0.42770207076869915  1.0000
  C   C4        1.0  0.48045898252795133  0.19536286241398826  0.4142913849752232  1.0000
  C   C5        1.0  0.4243244773652978  0.2237549972017694  0.5058785638421961  1.0000
  C   C6        1.0  0.3465535211464168  0.17859092645071217  0.4917085923135638  1.0000
  C   C7        1.0  0.2843862545932446  0.26033720187465703  0.5176744711663692  1.0000
  C   C8        1.0  0.2110644014118852  0.21752839296711457  0.504277403351433  1.0000
  C   C9        1.0  0.1478473773785336  0.30196587926429275  0.5306080488030684  1.0000
  N   N2        1.0  0.0970338776230714  0.3698477761132326  0.5517771593868932  1.0000
  C   C10       1.0  0.1993262374389664  0.09271533862372339  0.4648890246090023  1.0000
  C   C11       1.0  0.2606361329006697  0.010955214082881248  0.43891475129325386  1.0000
  C   C12       1.0  0.3338385154741328  0.05336955881458483  0.4521091467885865  1.0000
  C   C13       1.0  0.4431097142449162  0.29562469790358925  0.6111283961592671  1.0000
  C   C14       1.0  0.5163420913410474  0.3380401283849037  0.6243833637141505  1.0000
  H   H1        1.0  0.5960352933684556  0.21551043655505997  0.35597872920125817  1.0000
  H   H2        1.0  0.46754492180873325  0.14171189125698236  0.3313499890649394  1.0000
  H   H3        1.0  0.2928946887100985  0.35779104814388174  0.5465835441063465  1.0000
  H   H4        1.0  0.1428574166396738  0.0586833372772082  0.45428292994272335  1.0000
  H   H5        1.0  0.2514295440448168  0.9143219177309716  0.4088054657949123  1.0000
  H   H6        1.0  0.3804719208055362  0.9876318110359249  0.4330391590606961  1.0000
  H   H7        1.0  0.401429645170248  0.3175433540917878  0.6841461302946832  1.0000
  H   H8        1.0  0.529784733881203  0.39291207516407356  0.7062834651818677  1.0000
  C   C15       1.0  0.9023163050741413  0.9977030176497431  0.554521990511732  1.0000
  C   C16       1.0  0.893669596601969  0.007453608457206107  0.41865948255236063  1.0000
  C   C17       1.0  0.8884598217938895  0.8952247627072467  0.350314850151374  1.0000
  C   C18       1.0  0.8937068653012061  0.7721838394059642  0.418970031238308  1.0000
  C   C19       1.0  0.9024175925576425  0.7604309445085998  0.5547613630420691  1.0000
  C   C20       1.0  0.9064752145693188  0.873799668782151  0.6217921698760152  1.0000
  C   C21       1.0  0.8801129788543668  0.9053556118231877  0.20668577264008992  1.0000
  O   O1        1.0  0.9109130545906519  0.8188826162207274  0.14220843970381236  1.0000
  C   C22       1.0  0.836816643096185  0.013504294201295952  0.13620848624758253  1.0000
  C   C23       1.0  0.8578241471087177  0.05771897837091  0.008753316936961797  1.0000
  C   C24       1.0  0.8171938838814512  0.15868482564988384  0.9399669715255925  1.0000
  O   O2        1.0  0.8411878405919447  0.1994049442829502  0.8135126878284944  1.0000
  C   C25       1.0  0.805383081084303  0.3006187088547272  0.7326008975390406  1.0000
  C   C26       1.0  0.754169911289153  0.21550693675673327  0.9993825085633632  1.0000
  C   C27       1.0  0.7323912218273028  0.17103955409612825  0.12533189552740143  1.0000
  C   C28       1.0  0.7731548552462224  0.07034898419611624  0.1933640804216603  1.0000
  H   H9        1.0  0.9197799862588061  0.186587850000274  0.81066675257052  1.0000
  H   H10       1.0  0.891812992177771  0.10249692243173714  0.3656553216998737  1.0000
  H   H11       1.0  0.8902563364673891  0.6855077763145352  0.366296556760207  1.0000
  H   H12       1.0  0.9131416767724828  0.8654788535780661  0.7265322014546707  1.0000
  H   H13       1.0  0.9063887609502405  0.42843915221865275  0.6067915882630088  1.0000
  H   H14       1.0  0.9064008584156794  0.014539056889147695  0.962665620638977  1.0000
  H   H15       1.0  0.8360354720282054  0.31229444073237533  0.6382768280544249  1.0000
  H   H16       1.0  0.8064866936910705  0.394004572533047  0.7796052656456598  1.0000
  H   H17       1.0  0.7465094757772305  0.27518286062887465  0.713700650980011  1.0000
  H   H18       1.0  0.7215413760036049  0.2935723140733597  0.9489715771751248  1.0000
  H   H19       1.0  0.6835306612722687  0.21439481199478538  0.17020198881137794  1.0000
  H   H20       1.0  0.7544074914402762  0.03605106221387744  0.29002118648047603  1.0000
  C   C29       1.0  0.9023925011620454  0.37920812073899746  0.1732545765418072  1.0000
  C   C30       1.0  0.9602321552574438  0.46957874389015375  0.1639910484480882  1.0000
  C   C31       1.0  0.988821379279893  0.5162670645810012  0.042070260283150196  1.0000
  C   C32       1.0  0.960110488962295  0.4693467723253546  0.9287674439456661  1.0000
  C   C33       1.0  0.9023413642417812  0.3789258583018895  0.9360287937066234  1.0000
  C   C34       1.0  0.8736819772780179  0.3346374302442001  0.0587476430702234  1.0000
  C   C35       1.0  0.050435366536760284  0.6106667888483566  0.03221858679490652  1.0000
  O   O3        1.0  0.09844348480180387  0.6037069166181119  0.9418771308100666  1.0000
  C   C36       1.0  0.05757598449280921  0.7129743588831716  0.12477263160346141  1.0000
  C   C37       1.0  0.12902272233561662  0.7561501132704447  0.1554946342641863  1.0000
  C   C38       1.0  0.13631562373621886  0.8538167640771621  0.24163521353337925  1.0000
  C   C39       1.0  0.20968595523155287  0.8966920410880079  0.273360009443246  1.0000
  N   N3        1.0  0.2686674351845577  0.9311533164292998  0.2988594081350844  1.0000
  C   C40       1.0  0.07216890470805071  0.9097076090211589  0.2967873823070808  1.0000
  C   C41       1.0  0.0009727028781911784  0.8685316417461442  0.2655613822531868  1.0000
  C   C42       1.0  0.9935304259437935  0.7711420546651275  0.17969864072405572  1.0000
  H   H21       1.0  0.7940321522403526  0.20716709846190295  0.3981587649621501  1.0000
  H   H22       1.0  0.9836909009881121  0.5026686193631522  0.2518405860798105  1.0000
  H   H23       1.0  0.9824769678741989  0.504522960104723  0.8347052542189948  1.0000
  H   H24       1.0  0.8290920797683788  0.2649676018793381  0.06508532367775444  1.0000
  H   H25       1.0  0.8805821864994954  0.3433700030486848  0.6114166796923874  1.0000
  H   H26       1.0  0.1789610934386099  0.713063525622037  0.11336772529609407  1.0000
  H   H27       1.0  0.07719052388358216  0.9853479728835788  0.3634167878467769  1.0000
  H   H28       1.0  0.9514087454428818  0.9125791900375155  0.307534282994806  1.0000
  H   H29       1.0  0.9377253541074667  0.7423926703527792  0.1552049582292201  1.0000
  Zn  Zn1       1.0  0.8200482505834035  0.3829691159600481  0.5558524724494744  1.0000
  Zn  Zn2       1.0  0.9846784460340984  0.3751645520705389  0.553430371524952  1.0000
  C   C43       1.0  0.9023486859526546  0.3738055900094812  0.7918465064105233  1.0000
  C   C44       1.0  0.9023798086305067  0.3843296313680682  0.3174364391013835  1.0000
  C   C45       1.0  0.9023949206283632  0.6162612205355658  0.5495407404422288  1.0000
  C   C46       1.0  0.9023335175661928  0.14187244317678838  0.5597422746484579  1.0000
  O   O4        1.0  0.9648518493447069  0.3830810000565861  0.3649060128379982  1.0000
  O   O5        1.0  0.9648271541970695  0.36912975832991046  0.7425382399444942  1.0000
  O   O6        1.0  0.9648636469815062  0.5649157856762574  0.5468746323864555  1.0000
  O   O7        1.0  0.9648153003908951  0.1872949846996692  0.5605695238461421  1.0000
  O   O8        1.0  0.8399113400464014  0.5708386859956487  0.5487133209479975  1.0000
  O   O9        1.0  0.8398748474703648  0.3750542189792272  0.7443768597469702  1.0000
  O   O10       1.0  0.8398995427665905  0.3890054160254406  0.3667430711504327  1.0000
  O   O11       1.0  0.8398629938019486  0.1932193913438245  0.562406679528185  1.0000
