data_image0
_chemical_formula_structural       NC10NC5H10C6SCOC6H10C6SCOC6H10Zn2C4O8
_chemical_formula_sum              "N2 C45 H30 S2 O10 Zn2"
_cell_length_a       19.4436361288709
_cell_length_b       10.302038109246572
_cell_length_c       10.302041481415108
_cell_angle_alpha    85.54819663174399
_cell_angle_beta     89.70072369043199
_cell_angle_gamma    89.43651638143119

_space_group_name_H-M_alt    "P 1"
_space_group_IT_number       1

loop_
  _space_group_symop_operation_xyz
  'x, y, z'

loop_
  _atom_site_type_symbol
  _atom_site_label
  _atom_site_symmetry_multiplicity
  _atom_site_fract_x
  _atom_site_fract_y
  _atom_site_fract_z
  _atom_site_occupancy
  N   N1        1.0  0.6479326107535065  0.40946719428179223  0.5626065272430343  1.0000
  C   C1        1.0  0.5890987048000637  0.41935911021416716  0.5769889020633943  1.0000
  C   C2        1.0  0.5157719532056662  0.43169562726874333  0.5949792124389406  1.0000
  C   C3        1.0  0.4735804108426822  0.39975630014772223  0.5003208832378916  1.0000
  C   C4        1.0  0.3976776115272798  0.41018923008347685  0.5056493652304275  1.0000
  C   C5        1.0  0.3579367417844836  0.38539114113786055  0.6126954080699889  1.0000
  C   C6        1.0  0.2818165418481441  0.38931360899075984  0.599739358563639  1.0000
  C   C7        1.0  0.241265418720959  0.44691151757371794  0.6934986054233194  1.0000
  C   C8        1.0  0.1696023792095372  0.45055391911129994  0.6829574800851188  1.0000
  C   C9        1.0  0.1374956479223472  0.396202347205721  0.5789435153436004  1.0000
  C   C10       1.0  0.0637033703032334  0.3999060585809906  0.5682471500095625  1.0000
  N   N2        1.0  0.004379384150163  0.40288364810180544  0.5596479814449737  1.0000
  C   C11       1.0  0.1773217713051791  0.3378973201492981  0.4855673178679134  1.0000
  C   C12       1.0  0.2490012250178769  0.3342008402545722  0.4958567112743495  1.0000
  C   C13       1.0  0.38606582728595856  0.3448713966630479  0.7437562306938728  1.0000
  C   C14       1.0  0.444737668488088  0.3879578536146564  0.7909950463562292  1.0000
  C   C15       1.0  0.4889596581508806  0.4858311149782837  0.7166578341070711  1.0000
  H   H1        1.0  0.4956725303507606  0.37069382634811254  0.41002895819707286  1.0000
  H   H2        1.0  0.3729808065109843  0.43272734300010707  0.4125141187665071  1.0000
  H   H3        1.0  0.2651449058031282  0.49014927131184693  0.7743361371519897  1.0000
  H   H4        1.0  0.1392667562396266  0.49581906994728686  0.7558695286056938  1.0000
  H   H5        1.0  0.15297044182690442  0.29485500000174447  0.40506422688829713  1.0000
  H   H6        1.0  0.2786708743818512  0.28669248505225053  0.4236405171790676  1.0000
  H   H7        1.0  0.3550911362546831  0.28063632414475626  0.8079800267281398  1.0000
  H   H8        1.0  0.4598841583205514  0.3538475051721437  0.8889036583406216  1.0000
  H   H9        1.0  0.4588651720838581  0.576536369717989  0.6914246604446521  1.0000
  H   H10       1.0  0.5322504383301798  0.5113776544086328  0.7797331842802313  1.0000
  C   C16       1.0  0.8260941460627156  0.02489814384296163  0.5610876415121266  1.0000
  C   C17       1.0  0.7672995043168653  0.03078094002585474  0.4820735091763042  1.0000
  C   C18       1.0  0.7383692696644925  0.9167436551063827  0.44227285928129834  1.0000
  C   C19       1.0  0.7675207269417101  0.7956442742644743  0.48201767872952606  1.0000
  C   C20       1.0  0.8262244473875718  0.7874426032839629  0.5611781143097754  1.0000
  C   C21       1.0  0.8552438167989447  0.9027278251727259  0.600217300896863  1.0000
  S   S1        1.0  0.6637397999310936  0.9256922225559  0.3403057070176063  1.0000
  C   C22       1.0  0.7143106688078255  0.9333029224847585  0.19349611765424313  1.0000
  O   O1        1.0  0.7308960818557255  0.8277447649891395  0.14701858022075354  1.0000
  C   C23       1.0  0.736996036270783  0.0590725852655829  0.12782464405984695  1.0000
  C   C24       1.0  0.7856270246813584  0.06054847846392075  0.02593674258611256  1.0000
  C   C25       1.0  0.8077338588488556  0.17849752795151685  0.9640437015738184  1.0000
  C   C26       1.0  0.7815818075150273  0.2962042505389608  0.0027535853098261676  1.0000
  C   C27       1.0  0.73315770894504  0.2961975837113404  0.10328702235737741  1.0000
  C   C28       1.0  0.7108216139812784  0.1785562964229228  0.16550206857621252  1.0000
  H   H11       1.0  0.9368354992566194  0.22111520285473807  0.7101894052600828  1.0000
  H   H12       1.0  0.7439007538751257  0.12374592313745092  0.4509987807050133  1.0000
  H   H13       1.0  0.7443435713175874  0.7083317987794263  0.45045268713928444  1.0000
  H   H14       1.0  0.9005706396679801  0.8972722849944204  0.6611286021437828  1.0000
  H   H15       1.0  0.8486635470465334  0.45700769989043966  0.5909518745962108  1.0000
  H   H16       1.0  0.8069039992331063  0.970601759241618  0.9944694347272733  1.0000
  H   H17       1.0  0.8452545816929306  0.17858473651537699  0.8860517214083536  1.0000
  H   H18       1.0  0.7987750052453977  0.38740760057858825  0.9547470974842245  1.0000
  H   H19       1.0  0.7127821957229248  0.3875111468543253  0.13298658033965838  1.0000
  H   H20       1.0  0.672898032704209  0.18186462687729366  0.24236530288220437  1.0000
  C   C29       1.0  0.8261722023583621  0.40629936819209944  0.17984574256007613  1.0000
  C   C30       1.0  0.8577244813712924  0.528785616192603  0.16868565819215675  1.0000
  C   C31       1.0  0.873729763670277  0.5892016029419407  0.04617479071269237  1.0000
  C   C32       1.0  0.8577896886838713  0.5283806457317215  0.9335796565786931  1.0000
  C   C33       1.0  0.8261463883016801  0.4060413478880922  0.9424200166977048  1.0000
  C   C34       1.0  0.8105521853946595  0.34557922230179017  0.06612089413646216  1.0000
  S   S2        1.0  0.9146509424755623  0.7449413086771224  0.03333139677249486  1.0000
  C   C35       1.0  0.9993642951160137  0.6735926266972576  0.03518831436132386  1.0000
  O   O2        1.0  0.026277123946115033  0.6499283275691674  0.9279018924121769  1.0000
  C   C36       1.0  0.037269064364517046  0.6415573298754256  0.15839445340072555  1.0000
  C   C37       1.0  0.0982706612350106  0.5667248726978933  0.15807156772361397  1.0000
  C   C38       1.0  0.13411313068989172  0.5351734960062347  0.27372244287236036  1.0000
  C   C39       1.0  0.10968400172708748  0.577962110559723  0.3908678573916107  1.0000
  C   C40       1.0  0.049421599393731475  0.6526221419924565  0.39256485551342046  1.0000
  C   C41       1.0  0.013373901801271959  0.6845513545513027  0.2772151346330325  1.0000
  H   H21       1.0  0.7665986216994908  0.17554919964586535  0.40818978191302135  1.0000
  H   H22       1.0  0.8700883510920999  0.577473349571481  0.25490324381770835  1.0000
  H   H23       1.0  0.8704450255387469  0.576731544627779  0.8395090831051988  1.0000
  H   H24       1.0  0.7862292238661223  0.25115080663531497  0.07380395571864296  1.0000
  H   H25       1.0  0.8143033822260196  0.35935465493198593  0.6184534182394343  1.0000
  H   H26       1.0  0.1181321089613907  0.5319083609935369  0.06858393110704508  1.0000
  H   H27       1.0  0.1808561608014756  0.47733928641025547  0.272480622355197  1.0000
  H   H28       1.0  0.1374922948861239  0.5534030614176451  0.48029623217488626  1.0000
  H   H29       1.0  0.030627906400875204  0.6860322257195854  0.4833975014081551  1.0000
  H   H30       1.0  0.9671529810856663  0.7433177527771822  0.2816799932183589  1.0000
  Zn  Zn1       1.0  0.7507954503012572  0.4075638519908804  0.5617602649502762  1.0000
  Zn  Zn2       1.0  0.9015165339439439  0.40477638164729113  0.5605049213688666  1.0000
  C   C42       1.0  0.8261488316946558  0.4009177293308017  0.7982765243705379  1.0000
  C   C43       1.0  0.8261647986956591  0.4114241120507405  0.323988775873715  1.0000
  C   C44       1.0  0.8261964335446771  0.6433072756806428  0.5559869586289652  1.0000
  C   C45       1.0  0.8261171451462141  0.169033006701244  0.5662784110824057  1.0000
  O   O3        1.0  0.8833601787439566  0.41208052805735873  0.3718880975979222  1.0000
  O   O4        1.0  0.8833472665279974  0.3981447084706009  0.7494240520326818  1.0000
  O   O5        1.0  0.8833849345235686  0.5938773463855833  0.5537735200397575  1.0000
  O   O6        1.0  0.8833224593223741  0.21634790041447682  0.5675385326665281  1.0000
  O   O7        1.0  0.7689894734891187  0.5959923341763376  0.5547266540741722  1.0000
  O   O8        1.0  0.7689518057592629  0.40026125621365316  0.7503771170215365  1.0000
  O   O9        1.0  0.768964718066123  0.4141970310826333  0.3728396015152202  1.0000
  O   O10       1.0  0.7689269986368434  0.21846439412029373  0.5684901339297024  1.0000
