data_image0
_chemical_formula_structural       NC10NC5H10C7OC6OCH12C6NCOC6H11Zn2C4O8
_chemical_formula_sum              "N3 C46 H33 O11 Zn2"
_cell_length_a       19.4436361288709
_cell_length_b       10.299359160628079
_cell_length_c       10.299662537453274
_cell_angle_alpha    85.5452158657264
_cell_angle_beta     89.69093770751046
_cell_angle_gamma    89.44098980803524

_space_group_name_H-M_alt    "P 1"
_space_group_IT_number       1

loop_
  _space_group_symop_operation_xyz
  'x, y, z'

loop_
  _atom_site_type_symbol
  _atom_site_label
  _atom_site_symmetry_multiplicity
  _atom_site_fract_x
  _atom_site_fract_y
  _atom_site_fract_z
  _atom_site_occupancy
  N   N1        1.0  0.6481208818085626  0.4098752962614156  0.5622375783788034  1.0000
  C   C1        1.0  0.58928608606379  0.41976939467971364  0.5766230909120562  1.0000
  C   C2        1.0  0.5159582199394335  0.43210863208743744  0.5946173269723543  1.0000
  C   C3        1.0  0.4737739076876337  0.40016360132413586  0.49993758111631426  1.0000
  C   C4        1.0  0.3978710590954569  0.41059910723223614  0.5052670693429593  1.0000
  C   C5        1.0  0.3581194894619404  0.38579156071934495  0.6123387379120286  1.0000
  C   C6        1.0  0.282000622717786  0.3897154137750203  0.5993795655954992  1.0000
  C   C7        1.0  0.24144341366655303  0.4473257514025344  0.6931594263368586  1.0000
  C   C8        1.0  0.1697814775345978  0.450969397736698  0.6826157498471528  1.0000
  C   C9        1.0  0.1376818932637779  0.39660653017841985  0.5785786962472543  1.0000
  C   C10       1.0  0.063890735591343  0.40031150668484683  0.567879742013679  1.0000
  N   N2        1.0  0.0045676498032686  0.40329011330058706  0.5592784921443241  1.0000
  C   C11       1.0  0.1775140386651478  0.33828887875359537  0.48518199086388014  1.0000
  C   C12       1.0  0.24919240950438612  0.3345911469528686  0.4954738777544829  1.0000
  C   C13       1.0  0.3862350538230893  0.34525758423586383  0.7434311696747227  1.0000
  C   C14       1.0  0.44490441148899373  0.38835397667287186  0.7906800465045707  1.0000
  C   C15       1.0  0.489137172752984  0.48625486694914577  0.7163231767547449  1.0000
  H   H1        1.0  0.4958729819403992  0.3710960534975185  0.40962519492677507  1.0000
  H   H2        1.0  0.37318360337888573  0.4331457000526002  0.4121095050302901  1.0000
  H   H3        1.0  0.2653173875282382  0.49057254419644347  0.7740148792428307  1.0000
  H   H4        1.0  0.1394411414723473  0.4962443378283308  0.7555438178467824  1.0000
  H   H5        1.0  0.1531682002837116  0.2952375612685305  0.4046610524683105  1.0000
  H   H6        1.0  0.2788666161556308  0.2870723973314455  0.4232418788254484  1.0000
  H   H7        1.0  0.3552518985449741  0.2810039486410061  0.8076714796813091  1.0000
  H   H8        1.0  0.46004064130647704  0.35423199344068235  0.888612360659623  1.0000
  H   H9        1.0  0.4590487243413144  0.5769845109224834  0.6910820034668694  1.0000
  H   H10       1.0  0.5324233118015326  0.5118063204277024  0.7794126994299324  1.0000
  C   C16       1.0  0.8262666229895582  0.02520586364287425  0.5607272152736529  1.0000
  C   C17       1.0  0.7693889243218615  0.031568799977513606  0.4768013424935995  1.0000
  C   C18       1.0  0.7411945541468679  0.9177847829443129  0.43337418280268936  1.0000
  C   C19       1.0  0.7695527228013457  0.7963041664333983  0.47705509227243126  1.0000
  C   C20       1.0  0.8264284900627314  0.7879493930569236  0.5608001189097078  1.0000
  C   C21       1.0  0.8545529061515348  0.9029911077685505  0.6019423059922839  1.0000
  C   C22       1.0  0.6806594778516973  0.926648300543381  0.34594209065938397  1.0000
  O   O1        1.0  0.6369503143159173  0.016324208647533478  0.3578716218726259  1.0000
  C   C23       1.0  0.6697081880103073  0.8338500818606905  0.24498420654850994  1.0000
  C   C24       1.0  0.7256590814393659  0.779491280058398  0.18046373875665256  1.0000
  C   C25       1.0  0.7146161986406394  0.693344206367406  0.08447237050208511  1.0000
  C   C26       1.0  0.647803911465195  0.6606770681213436  0.05026386302578856  1.0000
  C   C27       1.0  0.5916216751827816  0.7160754050476124  0.1134744755074466  1.0000
  C   C28       1.0  0.6026016597367808  0.8022825129266754  0.2095127879965646  1.0000
  O   O2        1.0  0.639485679066772  0.5736395699828688  0.9534333721653989  1.0000
  C   C29       1.0  0.5746760081601956  0.532009055846685  0.9091027326329302  1.0000
  H   H11       1.0  0.9334149688096448  0.22044006702320051  0.7195150559289416  1.0000
  H   H12       1.0  0.7472734313309103  0.12531763098214066  0.4439997256916921  1.0000
  H   H13       1.0  0.7467239644088504  0.7081000184356199  0.4467927539782428  1.0000
  H   H14       1.0  0.8984264963933978  0.897278405747187  0.666547653337026  1.0000
  H   H15       1.0  0.8480704987359104  0.4572420578335764  0.5933389973734158  1.0000
  H   H16       1.0  0.7779464332057061  0.8046047374334044  0.20316109334195853  1.0000
  H   H17       1.0  0.7582720724270948  0.6521078337483525  0.03592808112739787  1.0000
  H   H18       1.0  0.5393057856572943  0.6932400742330039  0.0891327210767705  1.0000
  H   H19       1.0  0.5585615220611366  0.8434805799224279  0.2570094926183615  1.0000
  H   H20       1.0  0.5832711627315744  0.46348315373212684  0.8325555823978577  1.0000
  H   H21       1.0  0.5444592915221211  0.6169312820628413  0.8668430033592922  1.0000
  H   H22       1.0  0.5457940427011568  0.480943069826528  0.990879265672231  1.0000
  C   C30       1.0  0.8263949281265789  0.40671730527003525  0.17938728482030353  1.0000
  C   C31       1.0  0.8966118596940783  0.43779538365915105  0.17499354405399448  1.0000
  C   C32       1.0  0.9321858401083009  0.4515635745288913  0.05609496557153637  1.0000
  C   C33       1.0  0.8964914433789459  0.43748752801032986  0.9398512169516144  1.0000
  C   C34       1.0  0.826300197444045  0.4064379800450919  0.9421400002075608  1.0000
  C   C35       1.0  0.7917068576763184  0.3907825394592317  0.06247261946999627  1.0000
  N   N3        1.0  0.0038143740003682147  0.4853266446819988  0.055020179054260376  1.0000
  C   C36       1.0  0.05248362516122418  0.4445765657685632  0.9603992712951408  1.0000
  O   O3        1.0  0.039918175137711565  0.34624826744609627  0.8989424773901566  1.0000
  C   C37       1.0  0.11853362502259834  0.5136866243043843  0.9375073637080504  1.0000
  C   C38       1.0  0.12685841680239296  0.6416059757700836  0.9738045282425567  1.0000
  C   C39       1.0  0.18926804868654412  0.7060100100567632  0.9511022210845983  1.0000
  C   C40       1.0  0.2438532526590791  0.6439731777493469  0.8916683110959687  1.0000
  C   C41       1.0  0.23608687016328278  0.5174899259148078  0.8543606837297619  1.0000
  C   C42       1.0  0.17379441068788948  0.45262668444635734  0.87673289424824  1.0000
  H   H23       1.0  0.6937840534408076  0.34930274826209673  0.3948471922062924  1.0000
  H   H24       1.0  0.9241711767776322  0.45050571005008044  0.2641864221832251  1.0000
  H   H25       1.0  0.9231342827072625  0.4529595987405255  0.8475183940222006  1.0000
  H   H26       1.0  0.737579688227377  0.3668078515397941  0.06499556653774552  1.0000
  H   H27       1.0  0.7991531329952343  0.39621222721759186  0.6154407441104226  1.0000
  H   H28       1.0  0.022595105630772494  0.5321845741847497  0.1337914545161989  1.0000
  H   H29       1.0  0.08507818522913979  0.6929142164838882  0.017930135473618325  1.0000
  H   H30       1.0  0.1952056156237285  0.8043821011737038  0.9791783662543185  1.0000
  H   H31       1.0  0.29209036053483883  0.6940613127540272  0.8741553153824526  1.0000
  H   H32       1.0  0.27837621469472995  0.4695896677278242  0.8080342018699387  1.0000
  H   H33       1.0  0.16903544737165732  0.3544554453503004  0.8472719491791731  1.0000
  Zn  Zn1       1.0  0.7509837189749416  0.40797148051476273  0.5613911619656287  1.0000
  Zn  Zn2       1.0  0.9017048005741156  0.405183317234058  0.5601355889325572  1.0000
  C   C43       1.0  0.8263154536303703  0.40131703383229156  0.7979629294988897  1.0000
  C   C44       1.0  0.8263747121201097  0.4118393720765643  0.32356393531395433  1.0000
  C   C45       1.0  0.8263949899289716  0.6437766259183682  0.5556110621091448  1.0000
  C   C46       1.0  0.8262951240512235  0.16937822058178775  0.5659158722230655  1.0000
  O   O4        1.0  0.8835657912186998  0.4124946251948647  0.37147445232576937  1.0000
  O   O5        1.0  0.8835181878556526  0.3985446496918408  0.7490990876600281  1.0000
  O   O6        1.0  0.8835816432003172  0.5943338503904996  0.5533982466154552  1.0000
  O   O7        1.0  0.8835022844572077  0.21670543477368898  0.5671751964231024  1.0000
  O   O8        1.0  0.7691861836581426  0.5964493639280113  0.554351554896718  1.0000
  O   O9        1.0  0.7691227286500562  0.40066172359093266  0.7500523268435582  1.0000
  O   O10       1.0  0.7691703322432089  0.414611654407987  0.3724261300734193  1.0000
  O   O11       1.0  0.7691068254648373  0.21882245466220795  0.5681269715396267  1.0000
