data_image0
_chemical_formula_structural       NC12NC2H8C7OC6H10C7OC6OCH12Zn2C4O8
_chemical_formula_sum              "N2 C45 H30 O11 Zn2"
_cell_length_a       17.80743265337812
_cell_length_b       10.299379429549807
_cell_length_c       10.299362532796529
_cell_angle_alpha    85.55652278512687
_cell_angle_beta     91.54954799628842
_cell_angle_gamma    89.43379168207073

_space_group_name_H-M_alt    "P 1"
_space_group_IT_number       1

loop_
  _space_group_symop_operation_xyz
  'x, y, z'

loop_
  _atom_site_type_symbol
  _atom_site_label
  _atom_site_symmetry_multiplicity
  _atom_site_fract_x
  _atom_site_fract_y
  _atom_site_fract_z
  _atom_site_occupancy
  N   N1        1.0  0.707166304649351  0.4062934091802184  0.6008348429735952  1.0000
  C   C1        1.0  0.6563347891275336  0.4358306177597786  0.5321262066884203  1.0000
  C   C2        1.0  0.5930953704732721  0.4725727624428704  0.4466613118190257  1.0000
  C   C3        1.0  0.6048004914799682  0.5265536229999599  0.32002348425067195  1.0000
  C   C4        1.0  0.543468845195841  0.5617929017392853  0.236955090178544  1.0000
  C   C5        1.0  0.47027766285886313  0.5433145757518465  0.2798645339557546  1.0000
  C   C6        1.0  0.4575958465324999  0.48921506446774954  0.4069705412472575  1.0000
  C   C7        1.0  0.5197848061811027  0.453979034202048  0.4900224226618999  1.0000
  C   C8        1.0  0.37983694259597417  0.4696235178512185  0.4527406478348559  1.0000
  C   C9        1.0  0.36107113463793955  0.49685494428018706  0.5797733860553578  1.0000
  C   C10       1.0  0.2878500119541882  0.47841820801187773  0.6227233770224747  1.0000
  C   C11       1.0  0.2324518710761941  0.4324960444549151  0.5394786799588158  1.0000
  C   C12       1.0  0.1570943860057172  0.4135069277283201  0.5838297816044244  1.0000
  N   N2        1.0  0.09651230453440432  0.3982409549651402  0.619485016278648  1.0000
  C   C13       1.0  0.2505262790130115  0.4050958808934526  0.41298896574684707  1.0000
  C   C14       1.0  0.323694504235539  0.4235473159866723  0.3697830857568869  1.0000
  H   H1        1.0  0.6612601459477724  0.5413665121280413  0.2855815315351373  1.0000
  H   H2        1.0  0.552649823009205  0.6038590789596592  0.1391619414973697  1.0000
  H   H3        1.0  0.42362680771317807  0.572929461442667  0.21426377435955768  1.0000
  H   H4        1.0  0.51130222870187  0.4105274208746357  0.5876916341684053  1.0000
  H   H5        1.0  0.40275731484853194  0.5340589428903584  0.6453320264358244  1.0000
  H   H6        1.0  0.2744221683906475  0.500298654928792  0.720722973673062  1.0000
  H   H7        1.0  0.20812325318151143  0.3691593834002773  0.34784281080368484  1.0000
  H   H8        1.0  0.3365940451625445  0.4001313315170989  0.2720873823138845  1.0000
  C   C15       1.0  0.9018511219868318  0.02087509279393185  0.6103145404444748  1.0000
  C   C16       1.0  0.9474090624273518  0.010079867947728749  0.7242411761498988  1.0000
  C   C17       1.0  0.9696830978987646  0.8874106423226241  0.7825199127070679  1.0000
  C   C18       1.0  0.9473175760113746  0.7748595995382108  0.7239605145753694  1.0000
  C   C19       1.0  0.9018346849352151  0.7836491656884297  0.6100168489063327  1.0000
  C   C20       1.0  0.8792021409627647  0.9071291215217796  0.5540441069004354  1.0000
  C   C21       1.0  0.018441222188287032  0.8759147724052652  0.9020516422529592  1.0000
  O   O1        1.0  0.06610429761320336  0.7841465118441148  0.9166908170465422  1.0000
  C   C22       1.0  0.013124454259858753  0.9684233153583278  0.004980550917562332  1.0000
  C   C23       1.0  0.07739638779604596  0.9965816124447022  0.07962108862773065  1.0000
  C   C24       1.0  0.07275832912450597  0.08246851848585157  0.17789006985059896  1.0000
  C   C25       1.0  0.003944179666797609  0.1401945102051474  0.20335169177506596  1.0000
  C   C26       1.0  0.9395574125819517  0.1117304352456554  0.13094972674855865  1.0000
  C   C27       1.0  0.9438937670075415  0.02592939394446203  0.03257862760402119  1.0000
  H   H9        1.0  0.8168283776649223  0.24863670464150678  0.3942128606827988  1.0000
  H   H10       1.0  0.9663132448659931  0.09729019978197773  0.7669832288311058  1.0000
  H   H11       1.0  0.9649111584916542  0.6802081651050957  0.7682399695349211  1.0000
  H   H12       1.0  0.8440807557479941  0.9146473259915086  0.4662146685276496  1.0000
  H   H13       1.0  0.8848849875689859  0.45960719201615413  0.5656378515770291  1.0000
  H   H14       1.0  0.13128801458933248  0.9530151729562375  0.061155471681952456  1.0000
  H   H15       1.0  0.12256671486650395  0.10422579479467653  0.2343713873393206  1.0000
  H   H16       1.0  0.00045651963832216147  0.2065613903621526  0.2795247479222528  1.0000
  H   H17       1.0  0.8861495114491835  0.15572625257316774  0.15143831717006906  1.0000
  H   H18       1.0  0.8930483464824704  0.0035096809192236567  0.9792073440775713  1.0000
  C   C28       1.0  0.9017842728434513  0.40214279639260253  0.2287960580475501  1.0000
  C   C29       1.0  0.8304715455580819  0.34493369715427247  0.22869059229234323  1.0000
  C   C30       1.0  0.794179519258776  0.3174091401432295  0.11144985543379549  1.0000
  C   C31       1.0  0.8306831069746544  0.34509288886328915  0.9934463628093058  1.0000
  C   C32       1.0  0.901901540302924  0.4023814392419185  0.9915353565489826  1.0000
  C   C33       1.0  0.9369794846917059  0.4308327560677221  0.10972643270731708  1.0000
  C   C34       1.0  0.7192571407905798  0.25565737659693943  0.11368843554780828  1.0000
  O   O2        1.0  0.7039098303001825  0.17676364921539678  0.2088806753562784  1.0000
  C   C35       1.0  0.6617484873536124  0.2833995117675465  0.008008558203581817  1.0000
  C   C36       1.0  0.6559685697767524  0.4068986828576584  0.9398302721157137  1.0000
  C   C37       1.0  0.6009788284956461  0.43221697046807894  0.8414911995101972  1.0000
  C   C38       1.0  0.5504450281758491  0.33559220719280747  0.8100597772386529  1.0000
  C   C39       1.0  0.5554348680570281  0.21230294205098765  0.8791183583570792  1.0000
  C   C40       1.0  0.6104178796507096  0.18685758721125123  0.9775295631244596  1.0000
  O   O3        1.0  0.49636271969938056  0.36587199383718305  0.7104732715926039  1.0000
  C   C41       1.0  0.4415885556536969  0.27723843164563866  0.6685118457295212  1.0000
  H   H19       1.0  0.03647959882501706  0.5096022390883517  0.43630952201255124  1.0000
  H   H20       1.0  0.802656025601699  0.32276673437503733  0.31990112868450926  1.0000
  H   H21       1.0  0.8038275631978402  0.32056680363339285  0.9031156401267264  1.0000
  H   H22       1.0  0.9919195083662794  0.475022515609435  0.10898502470928073  1.0000
  H   H23       1.0  0.9293484825017984  0.42387307075905944  0.6633723143145351  1.0000
  H   H24       1.0  0.6934130028504101  0.4843794672421988  0.9634176517005959  1.0000
  H   H25       1.0  0.5973972611462096  0.5277559036709893  0.7897188449618104  1.0000
  H   H26       1.0  0.5171274532962212  0.13552583355568415  0.857586149723705  1.0000
  H   H27       1.0  0.6132695352154675  0.09115187123637658  0.02915383267223559  1.0000
  H   H28       1.0  0.406299510254545  0.32666614371879255  0.5887191065399486  1.0000
  H   H29       1.0  0.40490418902999703  0.24578228026391735  0.7503168330794088  1.0000
  H   H30       1.0  0.46959572335513705  0.19133434461332666  0.6312308052882685  1.0000
  Zn  Zn1       1.0  0.8195231544440713  0.4039661796887637  0.6062243684233897  1.0000
  Zn  Zn2       1.0  0.9841554541026037  0.40055759367002364  0.6141060880345564  1.0000
  C   C42       1.0  0.9018777995394787  0.3971623843455103  0.8473632219510294  1.0000
  C   C43       1.0  0.9018026067710615  0.4073629905503815  0.3729674474022111  1.0000
  C   C44       1.0  0.9018331252623583  0.6394670824933755  0.6048977590569877  1.0000
  C   C45       1.0  0.901847224914964  0.16505673319016823  0.6154329774545007  1.0000
  O   O4        1.0  0.9642858596587582  0.40781572868194904  0.42434375641931954  1.0000
  O   O5        1.0  0.9643466527241469  0.3941216283961888  0.8019685822838456  1.0000
  O   O6        1.0  0.9643097356667957  0.5897857543718097  0.6061759646648448  1.0000
  O   O7        1.0  0.9643227205230879  0.21215161312976472  0.6201362739703442  1.0000
  O   O8        1.0  0.8393558318426619  0.5923721613936177  0.6001941797911261  1.0000
  O   O9        1.0  0.8393927488523055  0.3967095957949398  0.7959867275554031  1.0000
  O   O10       1.0  0.8393319555978236  0.410403650332404  0.4183603403072731  1.0000
  O   O11       1.0  0.8393688164742497  0.2147395255213782  0.6141529552297984  1.0000
