data_image0
_chemical_formula_structural       NC8NC6H8C6SCOC6H10C7OC3OC4H12Zn2C4O8
_chemical_formula_sum              "N2 C45 H30 S1 O11 Zn2"
_cell_length_a       17.457602349358154
_cell_length_b       10.302038109246572
_cell_length_c       10.299374482448636
_cell_angle_alpha    85.55445882342696
_cell_angle_beta     92.85818479457473
_cell_angle_gamma    91.70619204985762

_space_group_name_H-M_alt    "P 1"
_space_group_IT_number       1

loop_
  _space_group_symop_operation_xyz
  'x, y, z'

loop_
  _atom_site_type_symbol
  _atom_site_label
  _atom_site_symmetry_multiplicity
  _atom_site_fract_x
  _atom_site_fract_y
  _atom_site_fract_z
  _atom_site_occupancy
  N   N1        1.0  0.7229577326205722  0.4528201914441572  0.6266733130661934  1.0000
  C   C1        1.0  0.6618730296823773  0.40690830978714687  0.6160511340441497  1.0000
  C   C2        1.0  0.5858810755042752  0.34979963975672423  0.6028466862805277  1.0000
  C   C3        1.0  0.527346137979826  0.38993410972467113  0.6777514200709756  1.0000
  C   C4        1.0  0.452792555550211  0.3349430574519736  0.6651617107682635  1.0000
  C   C5        1.0  0.3906663248693323  0.37731908955490434  0.7444886473859722  1.0000
  C   C6        1.0  0.3161335724864761  0.39579651517659364  0.6887264429509063  1.0000
  C   C7        1.0  0.2575985769619388  0.43574707701897664  0.7637391078070159  1.0000
  C   C8        1.0  0.1816281975875973  0.4548307442587083  0.705761476926406  1.0000
  N   N2        1.0  0.12056092783447649  0.4701676344851977  0.6591476118844684  1.0000
  C   C9        1.0  0.2731041226567597  0.45746317572508466  0.8950225385935144  1.0000
  C   C10       1.0  0.3468521728886064  0.43937455250257096  0.951172402215396  1.0000
  C   C11       1.0  0.40537551248293024  0.3996038929802843  0.8766174929209358  1.0000
  C   C12       1.0  0.4380626945021805  0.23914061834058553  0.5762342253353636  1.0000
  C   C13       1.0  0.4965858924145323  0.19928466702538739  0.501729541244494  1.0000
  C   C14       1.0  0.5703546280927769  0.2543879367029642  0.5148692274031248  1.0000
  H   H1        1.0  0.539692083573992  0.4650948088737832  0.7443937586417122  1.0000
  H   H2        1.0  0.3038047349857141  0.3808542078479369  0.5866977401527971  1.0000
  H   H3        1.0  0.2282380679741714  0.4883245892937407  0.9538638264595474  1.0000
  H   H4        1.0  0.358667665659468  0.4558742437632066  0.05282804765282789  1.0000
  H   H5        1.0  0.4618496776212634  0.38460455477815136  0.9227229038355795  1.0000
  H   H6        1.0  0.381571388649033  0.19381827494875803  0.5655760085962898  1.0000
  H   H7        1.0  0.484754192639454  0.12524045434225028  0.43388900706303657  1.0000
  H   H8        1.0  0.6152204657478803  0.22265690700672458  0.4565389575636405  1.0000
  C   C15       1.0  0.9216903408637752  0.08021245915873654  0.6428646677985266  1.0000
  C   C16       1.0  0.856118911069292  0.08213973569420907  0.5579870704817818  1.0000
  C   C17       1.0  0.8238542566388284  0.9661560201001591  0.5153010500179118  1.0000
  C   C18       1.0  0.8563656847504718  0.8470179167047869  0.5579532179276148  1.0000
  C   C19       1.0  0.9218356735618928  0.8427656761423331  0.6429681150968751  1.0000
  C   C20       1.0  0.9541998676024266  0.9600032345899002  0.6849013514223983  1.0000
  S   S1        1.0  0.7406230935344988  0.9700835778095791  0.4058908602758351  1.0000
  C   C21       1.0  0.7970547883461314  0.9810743928300342  0.2640734044613293  1.0000
  O   O1        1.0  0.8155620916381516  0.8766249628236492  0.21923350420820764  1.0000
  C   C22       1.0  0.8223692108489086  0.10836034591598898  0.2006413746204565  1.0000
  C   C23       1.0  0.8766303654227936  0.11309074352128379  0.10356347524576792  1.0000
  C   C24       1.0  0.9012988944746554  0.23251763094602196  0.0438532680164887  1.0000
  C   C25       1.0  0.8721215265395894  0.34847253701324243  0.0799726669955978  1.0000
  C   C26       1.0  0.8180913510193311  0.3452251164309319  0.17571634551337567  1.0000
  C   C27       1.0  0.7931670424457374  0.22609063219623482  0.23572584444579148  1.0000
  H   H9        1.0  0.04519592291425911  0.2838798786180954  0.8030104978263943  1.0000
  H   H10       1.0  0.8300231187045859  0.17353056226469699  0.5245789226284607  1.0000
  H   H11       1.0  0.8305171458133358  0.7581461116654593  0.5240767182973911  1.0000
  H   H12       1.0  0.0047511512781897025  0.9575971409653684  0.7503329998077923  1.0000
  H   H13       1.0  0.9468612055532282  0.5138403658221453  0.6749795881353513  1.0000
  H   H14       1.0  0.9003686949277551  0.024569282556056615  0.07420375899027531  1.0000
  H   H15       1.0  0.9431634203035709  0.23511588158433394  0.9695725413421452  1.0000
  H   H16       1.0  0.891307017695056  0.44082526263683985  0.03366387030574747  1.0000
  H   H17       1.0  0.7953588299501915  0.43517376177116396  0.20339750260582123  1.0000
  H   H18       1.0  0.7508533112250751  0.22686075698756736  0.30883750904653096  1.0000
  C   C28       1.0  0.9218340823070961  0.46157963248793643  0.2615396571996833  1.0000
  C   C29       1.0  0.0019735602021475618  0.4797369416103079  0.26571544695527405  1.0000
  C   C30       1.0  0.042297062622421056  0.49036180641104  0.1505260961775967  1.0000
  C   C31       1.0  0.0017901653244549731  0.47966508454609524  0.030461609736095907  1.0000
  C   C32       1.0  0.9216918954468244  0.4613984775346607  0.02429305047444319  1.0000
  C   C33       1.0  0.8821556763382559  0.45280145048221354  0.14037441683649887  1.0000
  C   C34       1.0  0.1270085979423039  0.5081803959808231  0.15490760559989036  1.0000
  O   O2        1.0  0.16463796362153849  0.4562929091312291  0.07212743162957191  1.0000
  C   C35       1.0  0.1690282706149313  0.5848772215059774  0.2531163792308333  1.0000
  C   C36       1.0  0.24387239118057202  0.5514335917086708  0.29738915838424607  1.0000
  C   C37       1.0  0.2848651560641171  0.6234693868683057  0.3889490207557589  1.0000
  O   O3        1.0  0.35908518576899184  0.584825407156573  0.43029916152127345  1.0000
  C   C38       1.0  0.4071655044553517  0.6487790701554652  0.522625881222871  1.0000
  C   C39       1.0  0.25058989322128555  0.731334450085926  0.4360773687741215  1.0000
  C   C40       1.0  0.17664177403445924  0.7661500669497066  0.39136737641419383  1.0000
  C   C41       1.0  0.13609177040712894  0.6939006358741129  0.3000846812140232  1.0000
  H   H19       1.0  0.7707317983176092  0.42533320870419344  0.46114579647012666  1.0000
  H   H20       1.0  0.033221000916517474  0.4841915128368257  0.35885923762295335  1.0000
  H   H21       1.0  0.03286115307199511  0.48687489148240837  0.941606427708281  1.0000
  H   H22       1.0  0.8203739938058403  0.4388026405118275  0.13635147246788848  1.0000
  H   H23       1.0  0.8909938547085063  0.45330117391936064  0.6945561927689843  1.0000
  H   H24       1.0  0.27046277717005385  0.46830177908370696  0.2616723026678016  1.0000
  H   H25       1.0  0.462380028234322  0.5978436232514495  0.5370878169499738  1.0000
  H   H26       1.0  0.37946146844753126  0.6457698371430727  0.617597638822668  1.0000
  H   H27       1.0  0.4189799083882322  0.7512759054526696  0.4859415272913292  1.0000
  H   H28       1.0  0.2806648821499782  0.7890708638721444  0.506731473046246  1.0000
  H   H29       1.0  0.1507720130460224  0.8498022532954421  0.42717207900215626  1.0000
  H   H30       1.0  0.07936537787070308  0.7241446238312581  0.2652313035701608  1.0000
  Zn  Zn1       1.0  0.8376974240286269  0.457822805094551  0.6360521923714471  1.0000
  Zn  Zn2       1.0  0.005821218166060849  0.46515437292782935  0.6497793638805383  1.0000
  C   C42       1.0  0.9217160818332532  0.45626016133595493  0.8801155220523342  1.0000
  C   C43       1.0  0.92180439655645  0.46671873496103333  0.4057163117911764  1.0000
  C   C44       1.0  0.921805196870159  0.6986279327238973  0.6377729372889176  1.0000
  C   C45       1.0  0.9217152238404867  0.2243494011095799  0.6480589608989551  1.0000
  O   O4        1.0  0.9855965363586164  0.4712200920370997  0.4593127034218156  1.0000
  O   O5        1.0  0.9855260115446475  0.457322315195025  0.8369373619854417  1.0000
  O   O6        1.0  0.985597112729372  0.6530373179222801  0.6412439401319958  1.0000
  O   O7        1.0  0.9855253778245503  0.2755050961192975  0.6550060232157064  1.0000
  O   O8        1.0  0.8579932069977393  0.6474720794025939  0.6308255283450375  1.0000
  O   O9        1.0  0.8579221061196739  0.45175863663836036  0.8265188811628801  1.0000
  O   O10       1.0  0.857992631267097  0.4656563686078725  0.44889266116464377  1.0000
  O   O11       1.0  0.8579214727099743  0.2699413633801284  0.6445860783268487  1.0000
