data_image0
_chemical_formula_structural       NC10NC3NCH9C7OC6H10C6NCOC6H11Zn2C4O8
_chemical_formula_sum              "N4 C44 H30 O10 Zn2"
_cell_length_a       19.437513618241372
_cell_length_b       10.299379429549807
_cell_length_c       10.299662537453274
_cell_angle_alpha    85.5174171995128
_cell_angle_beta     90.33361086240306
_cell_angle_gamma    89.52020702266324

_space_group_name_H-M_alt    "P 1"
_space_group_IT_number       1

loop_
  _space_group_symop_operation_xyz
  'x, y, z'

loop_
  _atom_site_type_symbol
  _atom_site_label
  _atom_site_symmetry_multiplicity
  _atom_site_fract_x
  _atom_site_fract_y
  _atom_site_fract_z
  _atom_site_occupancy
  N   N1        1.0  0.6479938844717492  0.4110956856357053  0.5751802463986142  1.0000
  C   C1        1.0  0.589060481302014  0.42810790618914596  0.5721990799140735  1.0000
  C   C2        1.0  0.5156199229729499  0.4493631076353948  0.5684986291608018  1.0000
  C   C3        1.0  0.4738603675584142  0.34817289835606924  0.5568694848131177  1.0000
  C   C4        1.0  0.3979708211823875  0.35824133046479734  0.5496449907010272  1.0000
  C   C5        1.0  0.3583896025076587  0.4390654644857148  0.6153644165730645  1.0000
  C   C6        1.0  0.2822082313070298  0.43046043629387576  0.6069227464450124  1.0000
  C   C7        1.0  0.24907426814218983  0.3091073940556104  0.6116025996499679  1.0000
  C   C8        1.0  0.1773402860577877  0.302738435710622  0.6044363256037741  1.0000
  C   C9        1.0  0.1377696204717739  0.4172496510786483  0.592952578251208  1.0000
  C   C10       1.0  0.0639211848292346  0.4105425687889437  0.5856183112765221  1.0000
  N   N2        1.0  0.0045521405543305  0.40515066452313664  0.5797220188656276  1.0000
  C   C11       1.0  0.17018693399392  0.5382917776288998  0.5890181074763403  1.0000
  C   C12       1.0  0.24190531142025362  0.5449147130852348  0.5962463278733239  1.0000
  C   C13       1.0  0.3870648187366975  0.5313153301343592  0.7052582715749165  1.0000
  N   N3        1.0  0.44405053033467995  0.5945402081874356  0.6848347591417294  1.0000
  C   C14       1.0  0.4878998900707169  0.5853290553436648  0.5717279902003822  1.0000
  H   H1        1.0  0.4962466499042312  0.2531171856959904  0.5447765728468517  1.0000
  H   H2        1.0  0.3732620110490295  0.2887515920972943  0.4913466781129938  1.0000
  H   H3        1.0  0.2785250669895042  0.21918601466316234  0.6226506021461735  1.0000
  H   H4        1.0  0.1527477823246526  0.20850561156018532  0.608351821056627  1.0000
  H   H5        1.0  0.14005068894802133  0.6275571809600731  0.5802824897110308  1.0000
  H   H6        1.0  0.266016288634216  0.6395603649030537  0.5923152485726675  1.0000
  H   H7        1.0  0.35705499889192277  0.5516641962810112  0.789620289988145  1.0000
  H   H8        1.0  0.5306510573479165  0.6556425159031116  0.5774704068269314  1.0000
  H   H9        1.0  0.4582391738842639  0.6134798302710749  0.48107239858717565  1.0000
  C   C15       1.0  0.8262837981640018  0.02673100693309327  0.5776053568149084  1.0000
  C   C16       1.0  0.8679755898143929  0.016106362694128018  0.6898834768899493  1.0000
  C   C17       1.0  0.8883587176762315  0.893518783235802  0.7473562802352685  1.0000
  C   C18       1.0  0.8678918808872507  0.7808857870239971  0.6896061246774279  1.0000
  C   C19       1.0  0.8262688239839708  0.7895051928041545  0.577308254725216  1.0000
  C   C20       1.0  0.8055567629014204  0.9128999818924785  0.5221544850586137  1.0000
  C   C21       1.0  0.9329797536905882  0.88220710699037  0.8651236456141422  1.0000
  O   O1        1.0  0.9766257363796984  0.7906884213692686  0.8780359598732046  1.0000
  C   C22       1.0  0.9280833831960671  0.9746166910552754  0.9682473545604877  1.0000
  C   C23       1.0  0.9869238658555994  0.0030741899186590427  0.040560423031256176  1.0000
  C   C24       1.0  0.982650292257698  0.08886900224309091  0.13899951344158556  1.0000
  C   C25       1.0  0.919623523097628  0.1462029734867225  0.16695527880131744  1.0000
  C   C26       1.0  0.8606772826904967  0.1174375488731767  0.0968849907050624  1.0000
  C   C27       1.0  0.8646745824894883  0.03172702792463933  0.9983547130945332  1.0000
  H   H10       1.0  0.7484771977511789  0.2541766425375096  0.364580155599626  1.0000
  H   H11       1.0  0.8852767217330895  0.10339055885146942  0.7319413870070659  1.0000
  H   H12       1.0  0.8839923575372363  0.6863000348351956  0.7332489611340203  1.0000
  H   H13       1.0  0.7734158574320513  0.9202866838942515  0.43559591517845875  1.0000
  H   H14       1.0  0.8107580439273558  0.46540111063490375  0.5335425414001111  1.0000
  H   H15       1.0  0.036282729718681406  0.9598137573134868  0.02014155458640432  1.0000
  H   H16       1.0  0.028249864215887932  0.11085907555261287  0.1936770995487439  1.0000
  H   H17       1.0  0.9164093396279457  0.21249905281939818  0.2432562984813028  1.0000
  H   H18       1.0  0.8117608789442192  0.16112861731943195  0.11930934588088449  1.0000
  H   H19       1.0  0.8181244696563615  0.009066755774917112  0.9468248044916476  1.0000
  C   C28       1.0  0.8263236665994373  0.4082578410081996  0.1960813764005338  1.0000
  C   C29       1.0  0.8965550550982816  0.43946330021516067  0.19314939014142252  1.0000
  C   C30       1.0  0.9321368182821319  0.4532959474208256  0.07499234753300543  1.0000
  C   C31       1.0  0.8964346730255117  0.43915521600197804  0.9580046808552409  1.0000
  C   C32       1.0  0.8262289714676451  0.4079783344973502  0.9588322359188761  1.0000
  C   C33       1.0  0.7916285891622987  0.39226012430780677  0.07844487024402569  1.0000
  N   N4        1.0  0.0037796219553285493  0.4871890410618638  0.07540769335683195  1.0000
  C   C34       1.0  0.0524733395375947  0.4465247776717187  0.981830458449362  1.0000
  O   O2        1.0  0.039926815964922646  0.348169997596828  0.9201574899627971  1.0000
  C   C35       1.0  0.11852769070056968  0.5157562425319184  0.960294040144722  1.0000
  C   C36       1.0  0.1268253851874117  0.6436956333482862  0.9967036950566404  1.0000
  C   C37       1.0  0.18923933657293412  0.7082143469605204  0.9752826080120474  1.0000
  C   C38       1.0  0.2438557688432903  0.6462731122964471  0.9170272288712478  1.0000
  C   C39       1.0  0.23611632288243056  0.5197708813746502  0.8796181539342434  1.0000
  C   C40       1.0  0.17381968655192992  0.45479315283283617  0.9007118337648072  1.0000
  H   H20       1.0  0.6936851920776577  0.3506027649145913  0.4087800052076509  1.0000
  H   H21       1.0  0.9241199274919836  0.45222364244355306  0.2829157387756096  1.0000
  H   H22       1.0  0.9230821444243646  0.45467576586092306  0.8662246990557438  1.0000
  H   H23       1.0  0.7374902796591262  0.36818724335918285  0.0798410233167286  1.0000
  H   H24       1.0  0.7990759027050037  0.3977034051915185  0.6315669645890263  1.0000
  H   H25       1.0  0.022555281243979985  0.5340825726347691  0.15455107237626176  1.0000
  H   H26       1.0  0.08502036414070568  0.6949308543609947  0.03992536725792495  1.0000
  H   H27       1.0  0.1951559219821255  0.8066010144837485  0.0034354931497488916  1.0000
  H   H28       1.0  0.2920961435270253  0.6964498965456662  0.9005043511088724  1.0000
  H   H29       1.0  0.27842982362056246  0.47194469295676766  0.834204647763785  1.0000
  H   H30       1.0  0.16908202182231769  0.3566094626909331  0.8711988415660317  1.0000
  Zn  Zn1       1.0  0.750888899739646  0.40937658878277694  0.5764984142667049  1.0000
  Zn  Zn2       1.0  0.9016571303807651  0.40685908726927855  0.578414525208355  1.0000
  C   C41       1.0  0.8262454199592357  0.4028572121769598  0.8146579928028257  1.0000
  C   C42       1.0  0.8263022564975575  0.413380075056466  0.3402550944264702  1.0000
  C   C43       1.0  0.826268752012776  0.645326582928269  0.5721891151199732  1.0000
  C   C44       1.0  0.826278873019402  0.170909144741477  0.5827240413030614  1.0000
  O   O3        1.0  0.883510828976116  0.41413809880537933  0.38936826756250054  1.0000
  O   O4        1.0  0.8834664460635617  0.4001874833852983  0.7669987300649093  1.0000
  O   O5        1.0  0.883484515528399  0.5959845790948359  0.5712033854999587  1.0000
  O   O6        1.0  0.8834927080762042  0.21834101328136213  0.5851635140936611  1.0000
  O   O7        1.0  0.7690532705944102  0.5978946636312092  0.5697494247206922  1.0000
  O   O8        1.0  0.7690352011043915  0.4020991283458679  0.7655446994311976  1.0000
  O   O9        1.0  0.7690795842574852  0.41604969907861733  0.38791267551962205  1.0000
  O   O10       1.0  0.7690614633428514  0.22025260422959603  0.5837080194238664  1.0000
