data_image0
_chemical_formula_structural       NC9NC5H8C7OC6OCH12C6SCOC6H10Zn2C4O8
_chemical_formula_sum              "N2 C45 H30 O11 S1 Zn2"
_cell_length_a       17.807436237873137
_cell_length_b       10.299359160628079
_cell_length_c       10.302041481415108
_cell_angle_alpha    85.54689826212588
_cell_angle_beta     89.38796050765288
_cell_angle_gamma    88.41300836981586

_space_group_name_H-M_alt    "P 1"
_space_group_IT_number       1

loop_
  _space_group_symop_operation_xyz
  'x, y, z'

loop_
  _atom_site_type_symbol
  _atom_site_label
  _atom_site_symmetry_multiplicity
  _atom_site_fract_x
  _atom_site_fract_y
  _atom_site_fract_z
  _atom_site_occupancy
  N   N1        1.0  0.7077869653013523  0.38826772184109504  0.5575676128898355  1.0000
  C   C1        1.0  0.6471917000519155  0.35308136365162746  0.5465427217999097  1.0000
  C   C2        1.0  0.5718178500667476  0.30931340899425286  0.5328289543591176  1.0000
  C   C3        1.0  0.5537138471349802  0.23793357662738868  0.4278417216138435  1.0000
  C   C4        1.0  0.480529705594187  0.19532679627008132  0.4144439160071156  1.0000
  C   C5        1.0  0.4244007622646324  0.22372232527332225  0.5060008627873527  1.0000
  C   C6        1.0  0.3466249088831401  0.17855718074674765  0.4918445328072858  1.0000
  C   C7        1.0  0.2844665156837174  0.26030541016115616  0.5177856372545637  1.0000
  C   C8        1.0  0.2111400217417498  0.21749558459111507  0.5044014907012948  1.0000
  C   C9        1.0  0.1479321484672021  0.30193507308946277  0.530706674501684  1.0000
  N   N2        1.0  0.0971260053215286  0.36981857960557396  0.551855315393166  1.0000
  C   C10       1.0  0.1993883173497274  0.09267955528698413  0.4650508710059693  1.0000
  C   C11       1.0  0.2606893378343921  0.010917476293237582  0.4391013773394601  1.0000
  C   C12       1.0  0.333896316026425  0.053332825713783505  0.45228299138824024  1.0000
  C   C13       1.0  0.4431962759265625  0.2955964545868799  0.611207325154631  1.0000
  C   C14       1.0  0.5164332505680328  0.3380128917637675  0.6244494951584467  1.0000
  H   H1        1.0  0.5961062597789708  0.21547272371397685  0.35614210448396166  1.0000
  H   H2        1.0  0.4676078419090327  0.1416723753499456  0.3315360410900672  1.0000
  H   H3        1.0  0.2929854667158468  0.3577615185857892  0.5466657113349591  1.0000
  H   H4        1.0  0.1429158085837107  0.05864674717323881  0.45445503684702215  1.0000
  H   H5        1.0  0.2514722772554493  0.9142818893544896  0.4090212246657736  1.0000
  H   H6        1.0  0.3805226400811317  0.9875935661574112  0.43323245210195993  1.0000
  H   H7        1.0  0.4015205700334595  0.317517807160707  0.6842011144335678  1.0000
  H   H8        1.0  0.5298837856844323  0.39288827048950714  0.7063160799328116  1.0000
  C   C15       1.0  0.9023716701895572  0.9976689036733848  0.5546812489403288  1.0000
  C   C16       1.0  0.8402370724338271  0.00592285485010402  0.47121450981680857  1.0000
  C   C17       1.0  0.8094366685284634  0.8930761716930438  0.4280153717375601  1.0000
  C   C18       1.0  0.8404160111135267  0.7706527757917301  0.4714669345361313  1.0000
  C   C19       1.0  0.9025484813898114  0.7604070473647344  0.5547528848808021  1.0000
  C   C20       1.0  0.9332722504469891  0.8745136997647481  0.5956681270661799  1.0000
  C   C21       1.0  0.7433068479825201  0.9039523480603503  0.34107149303409323  1.0000
  O   O1        1.0  0.6955654232193536  0.995083354878879  0.3533359218841854  1.0000
  C   C22       1.0  0.7313350219983915  0.8115161206341404  0.24022191196479992  1.0000
  C   C23       1.0  0.7924426420023397  0.7552934636262861  0.1752843091423626  1.0000
  C   C24       1.0  0.7803712610210002  0.6695115531271142  0.07940078601071576  1.0000
  C   C25       1.0  0.7073902265867118  0.6390673246420863  0.0457164989773331  1.0000
  C   C26       1.0  0.6460297863906977  0.696337184177419  0.10934634124948084  1.0000
  C   C27       1.0  0.658032469571708  0.7821812235167219  0.20527728355087338  1.0000
  O   O2        1.0  0.6982948412490263  0.5523042824236017  0.9489729995003207  1.0000
  C   C28       1.0  0.6275002237369722  0.5128297721199387  0.9051534836948196  1.0000
  H   H9        1.0  0.01942322763408999  0.189340759263656  0.7126039955731118  1.0000
  H   H10       1.0  0.8160775469529822  0.10040695622456197  0.4385914555218313  1.0000
  H   H11       1.0  0.8154776513671746  0.683207701353399  0.4413880735121538  1.0000
  H   H12       1.0  0.9812008270775961  0.8673423276629851  0.6599193448280574  1.0000
  H   H13       1.0  0.9261908039629699  0.428980194550651  0.5871169206416276  1.0000
  H   H14       1.0  0.8495572585034806  0.7786671687480731  0.1975723645366596  1.0000
  H   H15       1.0  0.8280508655728934  0.6268209458500544  0.03053060364882665  1.0000
  H   H16       1.0  0.5888838364341833  0.6752425146060717  0.0854144924086433  1.0000
  H   H17       1.0  0.6099330382693967  0.8248462888662873  0.2531030958378746  1.0000
  H   H18       1.0  0.6368809774297702  0.44401588985896207  0.8285578916964993  1.0000
  H   H19       1.0  0.5944909684332064  0.5987566723721215  0.8631371267181112  1.0000
  H   H20       1.0  0.5959611283251154  0.4627271161307036  0.9871339672897421  1.0000
  C   C29       1.0  0.9024741867368402  0.37916660117469214  0.17342982194270595  1.0000
  C   C30       1.0  0.9369436209854654  0.500634489335297  0.16202309819524263  1.0000
  C   C31       1.0  0.95442858854693  0.5605334545928533  0.039387160022539724  1.0000
  C   C32       1.0  0.9370148272406007  0.5002272433408919  0.9269166022661173  1.0000
  C   C33       1.0  0.902445978909881  0.37890937303555083  0.9360043015577313  1.0000
  C   C34       1.0  0.8854100226523065  0.31895057471622534  0.05982707476699978  1.0000
  S   S1        1.0  0.9991329800133436  0.7149516066868489  0.026223964366466568  1.0000
  C   C35       1.0  0.09166036870131511  0.6407648183182353  0.02742805556639083  1.0000
  O   O3        1.0  0.12105561600810888  0.616198613940165  0.9199342586607786  1.0000
  C   C36       1.0  0.13306150304979836  0.6074595894695576  0.15034209172257174  1.0000
  C   C37       1.0  0.19968888097476567  0.530577335754721  0.14954965837777  1.0000
  C   C38       1.0  0.23883743044105743  0.4978247936889255  0.264924352662661  1.0000
  C   C39       1.0  0.21215594168751672  0.5414376144408781  0.38225750553629423  1.0000
  C   C40       1.0  0.14633596263846282  0.6181227944988446  0.38441834433822497  1.0000
  C   C41       1.0  0.10696326388107824  0.6512601013270349  0.2693463810742385  1.0000
  H   H21       1.0  0.8373927742233755  0.1503393226752585  0.40223952688801345  1.0000
  H   H22       1.0  0.9504506193495158  0.5489233543970127  0.24814402115493683  1.0000
  H   H23       1.0  0.9508401737966986  0.548169485322705  0.832747122131646  1.0000
  H   H24       1.0  0.8588382896880941  0.22530718869399236  0.06770026540127749  1.0000
  H   H25       1.0  0.889507999514064  0.33260473191304984  0.6121302947436127  1.0000
  H   H26       1.0  0.2213815481010064  0.49509071794792514  0.05990938679432589  1.0000
  H   H27       1.0  0.2898912442949957  0.43841978069595955  0.2633227485016225  1.0000
  H   H28       1.0  0.2425292454007295  0.5159466232732202  0.47147160793673093  1.0000
  H   H29       1.0  0.12580951795936635  0.6521670801807249  0.4753954086300549  1.0000
  H   H30       1.0  0.056479781340430524  0.7115801673627777  0.27416696766872795  1.0000
  Zn  Zn1       1.0  0.8201417997908195  0.38294023004949995  0.5559266760829562  1.0000
  Zn  Zn2       1.0  0.9847711497858066  0.3751354814792842  0.5535069255313427  1.0000
  C   C42       1.0  0.9024484159479347  0.37378434226383583  0.7918609102481655  1.0000
  C   C43       1.0  0.9024663317511928  0.3842929226361522  0.31757279253549275  1.0000
  C   C44       1.0  0.9025113778701671  0.6162352663221851  0.5495653046960494  1.0000
  C   C45       1.0  0.9024033132882248  0.14184044089393555  0.5598684679906383  1.0000
  O   O4        1.0  0.9649396745829476  0.383045835722303  0.3650302069732003  1.0000
  O   O5        1.0  0.9649249402852511  0.3691068259927619  0.7425665872730804  1.0000
  O   O6        1.0  0.9649749405776368  0.5648890528522434  0.5469111840139624  1.0000
  O   O7        1.0  0.9648896181194743  0.18726362084923798  0.5606855137050772  1.0000
  O   O8        1.0  0.8400232752772347  0.5708120933443401  0.5487480887281344  1.0000
  O   O9        1.0  0.839973275345668  0.3750314268335191  0.744403422903136  1.0000
  O   O10       1.0  0.8399880097406301  0.38897039183064175  0.3668654815320431  1.0000
  O   O11       1.0  0.8399379532683278  0.19318816763595414  0.5625208856100741  1.0000
