data_image0
_chemical_formula_structural       NC9NC5H8C7OC6H10C6SCOC6H10Zn2C4O8
_chemical_formula_sum              "N2 C44 H28 O10 S1 Zn2"
_cell_length_a       17.807436237873137
_cell_length_b       10.299379429549807
_cell_length_c       10.302041481415108
_cell_angle_alpha    85.5191038852169
_cell_angle_beta     89.38796050765288
_cell_angle_gamma    88.38769231292811

_space_group_name_H-M_alt    "P 1"
_space_group_IT_number       1

loop_
  _space_group_symop_operation_xyz
  'x, y, z'

loop_
  _atom_site_type_symbol
  _atom_site_label
  _atom_site_symmetry_multiplicity
  _atom_site_fract_x
  _atom_site_fract_y
  _atom_site_fract_z
  _atom_site_occupancy
  N   N1        1.0  0.707435342105913  0.38833416857341163  0.5568974691087025  1.0000
  C   C1        1.0  0.6468489889268987  0.35314612625739716  0.5458895631569822  1.0000
  C   C2        1.0  0.5714862245758864  0.309376076732065  0.5321969233576134  1.0000
  C   C3        1.0  0.5534003008692944  0.237992827908462  0.42724414704318936  1.0000
  C   C4        1.0  0.4802269508581326  0.19538400826054425  0.4138669085565072  1.0000
  C   C5        1.0  0.4240908154528081  0.22378089636051035  0.5054101482636242  1.0000
  C   C6        1.0  0.3463264015884861  0.17861359009220523  0.4912756203756554  1.0000
  C   C7        1.0  0.2841473030357689  0.2603657322264956  0.5171772633655363  1.0000
  C   C8        1.0  0.2108316520511259  0.2175538576474807  0.5038137819461792  1.0000
  C   C9        1.0  0.1476023917758578  0.30199738767758855  0.5300782051661637  1.0000
  N   N2        1.0  0.0967790549613384  0.36988414330560726  0.5511940773711614  1.0000
  C   C10       1.0  0.1991115613099689  0.09273185426705477  0.4645234133713749  1.0000
  C   C11       1.0  0.260433290655777  0.01096586189054305  0.4386133878477232  1.0000
  C   C12       1.0  0.333629525804185  0.0533832414392299  0.4517745271838871  1.0000
  C   C13       1.0  0.4428681246930542  0.2956584657893686  0.6105819155933196  1.0000
  C   C14       1.0  0.5160943560153903  0.33807693314646037  0.6238036103594384  1.0000
  H   H1        1.0  0.5957984024425523  0.21553089995004404  0.3555553722030631  1.0000
  H   H2        1.0  0.4673186768708705  0.14172701927598674  0.33098493367008275  1.0000
  H   H3        1.0  0.292641570191928  0.3578265051980649  0.5460102934903845  1.0000
  H   H4        1.0  0.1426476724409292  0.05869741723919231  0.4539440075096157  1.0000
  H   H5        1.0  0.251240706129499  0.9143256496775222  0.4085798830479328  1.0000
  H   H6        1.0  0.3802725004286249  0.9876408354011569  0.4327557215144553  1.0000
  H   H7        1.0  0.4011868665163974  0.31758086758606785  0.6835651230097881  1.0000
  H   H8        1.0  0.5295309921872888  0.39295493837539075  0.7056437057231428  1.0000
  C   C15       1.0  0.9021189786356291  0.9977166551535493  0.5541996547918027  1.0000
  C   C16       1.0  0.9476553447150454  0.9856326066505462  0.6652535981697991  1.0000
  C   C17       1.0  0.9699183405862078  0.8623315881633749  0.7221272956888294  1.0000
  C   C18       1.0  0.9475639115149042  0.7504149598875632  0.6649787160490108  1.0000
  C   C19       1.0  0.9021025982882788  0.760491358810304  0.5539030526465067  1.0000
  C   C20       1.0  0.8794806531067798  0.8846111807240914  0.4993572949468168  1.0000
  C   C21       1.0  0.018653832160048456  0.8494579110322036  0.8385850374523494  1.0000
  O   O1        1.0  0.06631426991213285  0.7564088160627164  0.8502403510100942  1.0000
  C   C22       1.0  0.013317422937263679  0.9420417801948644  0.9418252186752765  1.0000
  C   C23       1.0  0.07757533253581728  0.9684374515501795  0.012430799926470226  1.0000
  C   C24       1.0  0.07291852320503933  0.0543845901641935  0.11096956882255882  1.0000
  C   C25       1.0  0.004099297824712078  0.11392969937454511  0.1407295626518602  1.0000
  C   C26       1.0  0.9397261275069339  0.0872298670722984  0.07236927387279424  1.0000
  C   C27       1.0  0.9440812510903257  0.0013767069056409564  0.9737472766579061  1.0000
  H   H9        1.0  0.8171371621151828  0.22788579260277197  0.34345987125170585  1.0000
  H   H10       1.0  0.9665514388954901  0.0723110710325392  0.706804567524993  1.0000
  H   H11       1.0  0.9651491084014907  0.6552656240827472  0.708148735173671  1.0000
  H   H12       1.0  0.8443759002117746  0.8931229620546567  0.41374246387841507  1.0000
  H   H13       1.0  0.8851613075665202  0.4369301756593507  0.5105932432234386  1.0000
  H   H14       1.0  0.13147065338361874  0.9234454221874575  0.9905986196640226  1.0000
  H   H15       1.0  0.12271630065436812  0.07477677644395309  0.16432422448100936  1.0000
  H   H16       1.0  0.0005971035963825422  0.18034040059026668  0.2171050197636395  1.0000
  H   H17       1.0  0.8863141481811099  0.1326370643603192  0.09619375809116859  1.0000
  H   H18       1.0  0.8932458425686145  0.9803477368830952  0.9235668692531354  1.0000
  C   C28       1.0  0.902124868691251  0.3792326122995824  0.17276407144920825  1.0000
  C   C29       1.0  0.9365635373128242  0.5007063142842234  0.1612987127939538  1.0000
  C   C30       1.0  0.954033333545851  0.5606081464891615  0.03863386022784465  1.0000
  C   C31       1.0  0.9366348467160305  0.5002990487977814  0.9261924134503765  1.0000
  C   C32       1.0  0.9020967260155435  0.37897537184871677  0.9353386752332504  1.0000
  C   C33       1.0  0.885075956241043  0.31901370371821636  0.05919039171850571  1.0000
  S   S1        1.0  0.9986986136771678  0.7150336895074401  0.02539612393188473  1.0000
  C   C34       1.0  0.0912447925416846  0.6408433503326023  0.026636026534815116  1.0000
  O   O2        1.0  0.1206462620253308  0.6162759701409761  0.9191540882129843  1.0000
  C   C35       1.0  0.13265436250442897  0.6075365273939723  0.14956613977154798  1.0000
  C   C36       1.0  0.19930121331873796  0.5306505938597093  0.14881081898320514  1.0000
  C   C37       1.0  0.2384580584136886  0.49789648415723864  0.2642013235560088  1.0000
  C   C38       1.0  0.21176552331861487  0.5415113923519659  0.38151342367436625  1.0000
  C   C39       1.0  0.14592612129542526  0.618200242796813  0.38363724505111807  1.0000
  C   C40       1.0  0.10654502945540134  0.6513391356776941  0.26854928576579895  1.0000
  H   H19       1.0  0.8371014140036463  0.15039438142786343  0.4016842357642949  1.0000
  H   H20       1.0  0.9500583049775865  0.5489974905984734  0.24739632578100412  1.0000
  H   H21       1.0  0.9504480503662202  0.5482435854416905  0.8319997906649519  1.0000
  H   H22       1.0  0.8585279414589267  0.2253658356375836  0.06710878583320756  1.0000
  H   H23       1.0  0.8891704747508493  0.33266851444469814  0.6114870205683585  1.0000
  H   H24       1.0  0.22100286856575124  0.49516227755502484  0.05918767747911269  1.0000
  H   H25       1.0  0.28952691848685785  0.43848862785895415  0.26262839534802995  1.0000
  H   H26       1.0  0.24214528344050756  0.5160191811076331  0.4707398310711213  1.0000
  H   H27       1.0  0.12539105381229088  0.6522461579421615  0.4745978755053144  1.0000
  H   H28       1.0  0.05604626892907749  0.7116620888159881  0.27334075469336083  1.0000
  Zn  Zn1       1.0  0.819791525953042  0.38300642179179123  0.555259103985539  1.0000
  Zn  Zn2       1.0  0.9844228527501895  0.3752012996624765  0.5528431209375813  1.0000
  C   C41       1.0  0.9021004611315316  0.3738500957773798  0.7911977578755347  1.0000
  C   C42       1.0  0.9021157153007607  0.3843591791224412  0.3169045674671027  1.0000
  C   C43       1.0  0.9021020146040007  0.6163126242772912  0.5487851165554387  1.0000
  C   C44       1.0  0.9021141056820893  0.14189509286410673  0.5593172794421526  1.0000
  O   O3        1.0  0.9645893739971564  0.38311203251920434  0.36436258389787435  1.0000
  O   O4        1.0  0.9645781701994242  0.36917235562609396  0.7419056928283625  1.0000
  O   O5        1.0  0.9645785823820128  0.5649639532207844  0.5461557816874272  1.0000
  O   O6        1.0  0.9645889056404444  0.18732044691150374  0.5601123985057825  1.0000
  O   O7        1.0  0.8396254168821953  0.570887277207685  0.5479898272349646  1.0000
  O   O8        1.0  0.8396250046652176  0.3750972400363386  0.7437396685385722  1.0000
  O   O9        1.0  0.8396362085715455  0.38903687219488936  0.3661949985584647  1.0000
  O   O10       1.0  0.8396357402083653  0.1932452772651203  0.5619449105170264  1.0000
