data_image0
_chemical_formula_structural       NC12NC2H8C6NCOC6H11C7OC6H10Zn2C4O8
_chemical_formula_sum              "N3 C44 H29 O10 Zn2"
_cell_length_a       19.240039667572717
_cell_length_b       10.29965916528486
_cell_length_c       10.299382801718286
_cell_angle_alpha    85.58981362736998
_cell_angle_beta     89.98040902502626
_cell_angle_gamma    90.0154664442568

_space_group_name_H-M_alt    "P 1"
_space_group_IT_number       1

loop_
  _space_group_symop_operation_xyz
  'x, y, z'

loop_
  _atom_site_type_symbol
  _atom_site_label
  _atom_site_symmetry_multiplicity
  _atom_site_fract_x
  _atom_site_fract_y
  _atom_site_fract_z
  _atom_site_occupancy
  N   N1        1.0  0.6549445767717561  0.42098055377756727  0.567953974507774  1.0000
  C   C1        1.0  0.5947962079816005  0.4209806377419787  0.5679538926005856  1.0000
  C   C2        1.0  0.5199781708825054  0.42098075499998  0.5679537553374148  1.0000
  C   C3        1.0  0.4834762208387052  0.35653576312256474  0.671342959219424  1.0000
  C   C4        1.0  0.41080544088515125  0.35642490011469774  0.67142946205512  1.0000
  C   C5        1.0  0.3736459360002111  0.4209808475215462  0.5679535276883265  1.0000
  C   C6        1.0  0.4108621094938909  0.48553698194605666  0.4644777879292852  1.0000
  C   C7        1.0  0.4835327660476262  0.4854258834663121  0.4645644131816855  1.0000
  C   C8        1.0  0.2964408455666838  0.420980768844734  0.567953432244489  1.0000
  C   C9        1.0  0.2592290148431581  0.30773013821238826  0.6097836163060419  1.0000
  C   C10       1.0  0.1865583586125273  0.30783701941648833  0.6096923290484135  1.0000
  C   C11       1.0  0.1501085586136824  0.42098063968583066  0.5679534931085526  1.0000
  C   C12       1.0  0.0752905213967948  0.4209805259907773  0.5679537417289822  1.0000
  N   N2        1.0  0.015142204500657199  0.42098048520607567  0.5679539501340434  1.0000
  C   C13       1.0  0.1866062694920819  0.5341243357714696  0.5262146043050413  1.0000
  C   C14       1.0  0.2592769979192379  0.5342313970629036  0.5261231545171652  1.0000
  H   H1        1.0  0.5111691017843283  0.3066411719023101  0.7520664639389818  1.0000
  H   H2        1.0  0.383690060233944  0.3073285789816369  0.7532687617819247  1.0000
  H   H3        1.0  0.3837909593701828  0.5346333301216935  0.3826384373636684  1.0000
  H   H4        1.0  0.5112696565001312  0.5353203744764599  0.3838411842220555  1.0000
  H   H5        1.0  0.2863037083263877  0.21858240821516728  0.6409192976005886  1.0000
  H   H6        1.0  0.1588248757738712  0.21958863721109467  0.641861301425009  1.0000
  H   H7        1.0  0.1589099288767413  0.6223726934432001  0.49404564647010263  1.0000
  H   H8        1.0  0.2863887832728477  0.6233792062268337  0.4949874284794138  1.0000
  C   C15       1.0  0.8349856140833765  0.03961982195895741  0.5678384683346667  1.0000
  C   C16       1.0  0.8354829713844988  0.04887540736412066  0.4310241558018928  1.0000
  C   C17       1.0  0.8367583879727726  0.9367020870516682  0.3621894058028463  1.0000
  C   C18       1.0  0.8356138692145639  0.8136851694799712  0.4313205364417618  1.0000
  C   C19       1.0  0.8351078260168203  0.8023312156286725  0.5680806260386468  1.0000
  C   C20       1.0  0.8350411238095724  0.9159062591919082  0.63556766320332  1.0000
  N   N3        1.0  0.8361991811072736  0.949748921525377  0.22212499514905915  1.0000
  C   C21       1.0  0.8687929733232193  0.858605278339301  0.14239985893988827  1.0000
  O   O1        1.0  0.916730666342904  0.785795322191513  0.18937731429593607  1.0000
  C   C22       1.0  0.8486162857224259  0.8523830560949939  0.004035340433571122  1.0000
  C   C23       1.0  0.784357060969494  0.9022317859405556  0.9576901569254286  1.0000
  C   C24       1.0  0.7657567552445345  0.8951942745267748  0.8271691495569438  1.0000
  C   C25       1.0  0.8107685107809883  0.8380914833447  0.7417135882291048  1.0000
  C   C26       1.0  0.8744161575707794  0.7874549778828419  0.7866825697995878  1.0000
  C   C27       1.0  0.8932818135024003  0.7941361374184925  0.9170991038522853  1.0000
  H   H9        1.0  0.8333840598604343  0.22942467120929844  0.8259141185091465  1.0000
  H   H10       1.0  0.8354128323394021  0.14347475652862274  0.37720184753723074  1.0000
  H   H11       1.0  0.8338974759670202  0.7268848047493972  0.3785158761491354  1.0000
  H   H12       1.0  0.8346670109628637  0.907905859313723  0.7410360591528249  1.0000
  H   H13       1.0  0.8339890451764995  0.47052675737333377  0.620541441941725  1.0000
  H   H14       1.0  0.8163766065554622  0.03587337181792072  0.17618516384043614  1.0000
  H   H15       1.0  0.7479244872252807  0.9449405221113074  0.022171682185410546  1.0000
  H   H16       1.0  0.716230686582725  0.9336211726524368  0.7923838661151388  1.0000
  H   H17       1.0  0.7962319088451898  0.8327155363348677  0.640757405873194  1.0000
  H   H18       1.0  0.909204594670588  0.7429501420679644  0.7204373484776179  1.0000
  H   H19       1.0  0.9429823327689115  0.7545227097518162  0.9496657079501922  1.0000
  C   C28       1.0  0.8351160458480885  0.4209023139809258  0.18658974743356693  1.0000
  C   C29       1.0  0.908133406178142  0.42176575017843554  0.18528635646610714  1.0000
  C   C30       1.0  0.9449610536648116  0.42071319916648053  0.06757037497886298  1.0000
  C   C31       1.0  0.907964044735418  0.42179378630724185  0.9500407967045721  1.0000
  C   C32       1.0  0.8349773781612646  0.4210487662272169  0.949329328113484  1.0000
  C   C33       1.0  0.7989766975976534  0.4202626377908143  0.06816951920070058  1.0000
  C   C34       1.0  0.02205811682585379  0.4230087971106491  0.06594260143021313  1.0000
  O   O2        1.0  0.05269113944530557  0.483716296970091  0.9714350195950869  1.0000
  C   C35       1.0  0.0644037188203821  0.3564271000853665  0.17142761694570008  1.0000
  C   C36       1.0  0.12973892131821185  0.40688574324082505  0.20254504870110734  1.0000
  C   C37       1.0  0.17039001010535548  0.3439532792122808  0.30077946845797277  1.0000
  C   C38       1.0  0.1465569027269389  0.22965228913038183  0.36810711447131417  1.0000
  C   C39       1.0  0.08214309778376205  0.17774671559799193  0.33696620417992906  1.0000
  C   C40       1.0  0.041293955444506425  0.24030047584833492  0.23883372490285115  1.0000
  H   H20       1.0  0.6973216790321112  0.4212845293722869  0.39621462357746084  1.0000
  H   H21       1.0  0.9364485025250865  0.42471615420699527  0.2758861338783323  1.0000
  H   H22       1.0  0.9362858305692534  0.4219651284973953  0.8590893646603486  1.0000
  H   H23       1.0  0.7426858144162313  0.4195977922287204  0.06837010038630931  1.0000
  H   H24       1.0  0.806939297082302  0.4218675151669853  0.6215145533877222  1.0000
  H   H25       1.0  0.14904910849128927  0.4955567814271957  0.15163772550532095  1.0000
  H   H26       1.0  0.22042615167377422  0.3838361180189651  0.324664818442844  1.0000
  H   H27       1.0  0.17812219395234297  0.18102611934079937  0.44403506347988175  1.0000
  H   H28       1.0  0.06396414879256418  0.08861977886084338  0.38850214444382836  1.0000
  H   H29       1.0  0.9920918479596021  0.19713554210424533  0.21476111137535114  1.0000
  Zn  Zn1       1.0  0.7588898386920592  0.42097706829955106  0.5679614548165877  1.0000
  Zn  Zn2       1.0  0.9111969577273527  0.4209733794669057  0.5679570653863357  1.0000
  C   C41       1.0  0.8350012307358536  0.4158475100543224  0.8051536061290532  1.0000
  C   C42       1.0  0.8350872291119729  0.42610457628063636  0.33076504201298174  1.0000
  C   C43       1.0  0.8350820975364737  0.658161561465719  0.5628596879495933  1.0000
  C   C44       1.0  0.8350063100769634  0.1837889646147992  0.5730590289373063  1.0000
  O   O3        1.0  0.8928773149628558  0.42784343751944975  0.3791499203665267  1.0000
  O   O4        1.0  0.8928087239968739  0.4141048693036937  0.756765022141517  1.0000
  O   O5        1.0  0.8928732455472369  0.6097765305759737  0.5611109693931529  1.0000
  O   O6        1.0  0.8928127414595787  0.23217178551975515  0.5748038757444416  1.0000
  O   O7        1.0  0.7772740029848901  0.6097786622493724  0.561114644453149  1.0000
  O   O8        1.0  0.7772094816939734  0.41410856123420414  0.7567686284513158  1.0000
  O   O9        1.0  0.7772780729827398  0.42784708389518156  0.37915196525759765  1.0000
  O   O10       1.0  0.7772134994574337  0.232175422625573  0.5748060180006296  1.0000
