data_image0
_chemical_formula_structural       NC10NC3NH7C7OC3OC4H12C6NCOC6H11Zn2C4O8
_chemical_formula_sum              "N4 C44 H30 O11 Zn2"
_cell_length_a       19.210446455230148
_cell_length_b       10.299371110280156
_cell_length_c       10.299662537453274
_cell_angle_alpha    85.55769285269643
_cell_angle_beta     89.97714991374127
_cell_angle_gamma    89.9600477448761

_space_group_name_H-M_alt    "P 1"
_space_group_IT_number       1

loop_
  _space_group_symop_operation_xyz
  'x, y, z'

loop_
  _atom_site_type_symbol
  _atom_site_label
  _atom_site_symmetry_multiplicity
  _atom_site_fract_x
  _atom_site_fract_y
  _atom_site_fract_z
  _atom_site_occupancy
  N   N1        1.0  0.6558196752906583  0.42073431804289574  0.567814464617103  1.0000
  C   C1        1.0  0.5955911892562467  0.4229417205354704  0.5680464177930349  1.0000
  C   C2        1.0  0.5207868282027994  0.4256784954934889  0.5683337795903449  1.0000
  C   C3        1.0  0.4851789010271936  0.5419018955978674  0.5834879870280116  1.0000
  C   C4        1.0  0.4125134327577294  0.5420534519501943  0.5834354439735072  1.0000
  C   C5        1.0  0.3756200920494079  0.4263874212237966  0.5684205214319784  1.0000
  C   C6        1.0  0.2982979276214645  0.4250310182241748  0.5682694346963646  1.0000
  C   C7        1.0  0.2605542832483349  0.5286254827094516  0.50494441230103  1.0000
  C   C8        1.0  0.1877758866216789  0.5272233086853508  0.5048348272599781  1.0000
  C   C9        1.0  0.1517397383737194  0.42248419744768784  0.5679993606356701  1.0000
  C   C10       1.0  0.0768101838003404  0.42118218252376005  0.5678620571313493  1.0000
  N   N2        1.0  0.016572303724056  0.420135318302868  0.5677516999741827  1.0000
  C   C11       1.0  0.18875973260072  0.3190154340661773  0.6312994198803707  1.0000
  C   C12       1.0  0.2615399625891345  0.32014332302772996  0.631459151841399  1.0000
  C   C13       1.0  0.4138379193247295  0.3119841453397856  0.5535551435598562  1.0000
  N   N3        1.0  0.4846079405622942  0.31442903034833436  0.5537215965237883  1.0000
  H   H1        1.0  0.51328193756916  0.6313298520155066  0.59556905529326  1.0000
  H   H2        1.0  0.3852465289890989  0.6320627166963952  0.5969114655572911  1.0000
  H   H3        1.0  0.2872896884563106  0.6098981624161748  0.45398261107531934  1.0000
  H   H4        1.0  0.1596374334669982  0.6076677660971632  0.45520313663822143  1.0000
  H   H5        1.0  0.1613848288411001  0.23760762879732322  0.6808312746564358  1.0000
  H   H6        1.0  0.2890334011072313  0.2398174821535417  0.6825286311900904  1.0000
  H   H7        1.0  0.3875706022922234  0.22111198674377053  0.5400325609576093  1.0000
  C   C14       1.0  0.836152398898472  0.03906355121203986  0.5676682872425607  1.0000
  C   C15       1.0  0.8281492467736059  0.04841705920096051  0.4316840303743601  1.0000
  C   C16       1.0  0.8233263650625791  0.9359490311574944  0.36326566060691867  1.0000
  C   C17       1.0  0.8281837591337735  0.8131490002928351  0.43199511158728443  1.0000
  C   C18       1.0  0.8362462337589771  0.8017961228720446  0.5679091241350556  1.0000
  C   C19       1.0  0.8400016472120854  0.91535120137743  0.6349969713003523  1.0000
  C   C20       1.0  0.8156015536955031  0.9456965070476934  0.2195194089065058  1.0000
  O   O1        1.0  0.8441441231826884  0.8606352565790967  0.1554912452507331  1.0000
  C   C21       1.0  0.7754888900267621  0.05185987928763636  0.14841526684735928  1.0000
  C   C22       1.0  0.7949619479948603  0.09703704957193571  0.0212688161776029  1.0000
  C   C23       1.0  0.757319483307963  0.19613982382280803  0.9518942900227692  1.0000
  O   O2        1.0  0.779559639239402  0.2379593504568347  0.825792072663277  1.0000
  C   C24       1.0  0.746389119374483  0.33753121275648734  0.7443625309629276  1.0000
  C   C25       1.0  0.6989194949482375  0.25007282744095094  0.010392772995891919  1.0000
  C   C26       1.0  0.6787319743732463  0.20460759550178875  0.13602228296970287  1.0000
  C   C27       1.0  0.7164980640263731  0.10578620942816275  0.20464460701319265  1.0000
  H   H8        1.0  0.8523174559886634  0.2287502788079656  0.824059460207937  1.0000
  H   H9        1.0  0.8264323411769644  0.14337499556812272  0.37865440106818493  1.0000
  H   H10       1.0  0.8249899477559441  0.7263144861170071  0.37927300876509484  1.0000
  H   H11       1.0  0.8461719391214524  0.907336530099408  0.7398308693900788  1.0000
  H   H12       1.0  0.8399224957638208  0.4699866477689462  0.6199955577679022  1.0000
  H   H13       1.0  0.8399746698141194  0.05608395138306976  0.9758879618799132  1.0000
  H   H14       1.0  0.7747967465405221  0.35061177278344924  0.6504863288944858  1.0000
  H   H15       1.0  0.7474087058713667  0.43096790296711096  0.791381600374744  1.0000
  H   H16       1.0  0.6918397232832589  0.30939615119941877  0.7246077236474737  1.0000
  H   H17       1.0  0.668690033782521  0.32664206916675287  0.9595093608316128  1.0000
  H   H18       1.0  0.6334563233992883  0.24572301078280945  0.18018144595362195  1.0000
  H   H19       1.0  0.6991211459871801  0.07062926888924848  0.30102669128143256  1.0000
  C   C28       1.0  0.836247247717224  0.42057027969839655  0.18641275045455608  1.0000
  C   C29       1.0  0.9073094244844684  0.452827006598463  0.18259662425817247  1.0000
  C   C30       1.0  0.9433118125812299  0.4671923713541051  0.06399025055136076  1.0000
  C   C31       1.0  0.9071875820000814  0.4525171342460119  0.9474532509791054  1.0000
  C   C32       1.0  0.8361513984847748  0.42028936861518784  0.9491646347082825  1.0000
  C   C33       1.0  0.8011416686122903  0.40405325678424164  0.06921260894442338  1.0000
  N   N4        1.0  0.015802394977256773  0.5021577478279431  0.06350514075260394  1.0000
  C   C34       1.0  0.06506322400227837  0.4622257433702943  0.9692709842080136  1.0000
  O   O3        1.0  0.0523550277093765  0.36368819367672245  0.9076905578981589  1.0000
  C   C35       1.0  0.13190465020312891  0.532443787224937  0.9469311253693449  1.0000
  C   C36       1.0  0.14031825341228554  0.6605006406734453  0.9833239130018803  1.0000
  C   C37       1.0  0.20347577421205987  0.7259516094426728  0.9611430322678638  1.0000
  C   C38       1.0  0.2587259635246264  0.6648325860223379  0.9021393162980944  1.0000
  C   C39       1.0  0.2508773824286856  0.5382211841575064  0.8647409191438094  1.0000
  C   C40       1.0  0.18783849140897724  0.4723129842411402  0.8865925554600125  1.0000
  H   H20       1.0  0.7020399354766649  0.36092971788848716  0.40078206118724635  1.0000
  H   H21       1.0  0.9352004433056993  0.46599992939519597  0.27201632126892306  1.0000
  H   H22       1.0  0.9341508002227065  0.4684363605364974  0.8553403998456486  1.0000
  H   H23       1.0  0.7463629381585758  0.3791700004674723  0.07129029421540767  1.0000
  H   H24       1.0  0.8086773836087999  0.40960789793687225  0.6222424539319777  1.0000
  H   H25       1.0  0.034805665249436624  0.5493302333537544  0.14243933044346146  1.0000
  H   H26       1.0  0.09802868241616935  0.7111063095719863  0.02712107962690702  1.0000
  H   H27       1.0  0.2094760302516605  0.8244216439065262  0.9892889383885444  1.0000
  H   H28       1.0  0.3075410947710364  0.7157299029160362  0.8850294045691336  1.0000
  H   H29       1.0  0.2936819028670936  0.49103198636914125  0.8187477612547416  1.0000
  H   H30       1.0  0.18303105601584946  0.3740635913969246  0.8570714747162618  1.0000
  Zn  Zn1       1.0  0.7599250889625678  0.4205579928204348  0.567803850208707  1.0000
  Zn  Zn2       1.0  0.9124668714735016  0.4203010569955221  0.5677729470146329  1.0000
  C   C41       1.0  0.836167308817219  0.41516877079742187  0.8049865692265361  1.0000
  C   C42       1.0  0.836226317555927  0.42569191479557156  0.3305903556455103  1.0000
  C   C43       1.0  0.836225558617253  0.657625333904519  0.5626883197208574  1.0000
  C   C44       1.0  0.8361680155033997  0.18323379143842766  0.5728886739090004  1.0000
  O   O4        1.0  0.8941081039903385  0.42730761073794254  0.37896594763631963  1.0000
  O   O5        1.0  0.8940612056584887  0.4133570869181533  0.7565871482642166  1.0000
  O   O6        1.0  0.8941074625700852  0.6091438287259903  0.5609295980725153  1.0000
  O   O7        1.0  0.8940617950399464  0.23152087834392066  0.5746234004650363  1.0000
  O   O8        1.0  0.7783301133410999  0.6093381715611321  0.5609533967620184  1.0000
  O   O9        1.0  0.7782838566269737  0.4135529900924386  0.7566108781996235  1.0000
  O   O10       1.0  0.7783307551958084  0.4275034692309274  0.378988116127954  1.0000
  O   O11       1.0  0.778284446229189  0.23171672751218675  0.5746456663233706  1.0000
