data_image0
_chemical_formula_structural       NC9NC5H8C7OC6H10C7OC3OC4H12Zn2C4O8
_chemical_formula_sum              "N2 C45 H30 O11 Zn2"
_cell_length_a       17.807436237873137
_cell_length_b       10.299379429549807
_cell_length_c       10.299374482448636
_cell_angle_alpha    85.52536088050722
_cell_angle_beta     89.37372472773512
_cell_angle_gamma    88.38769231292811

_space_group_name_H-M_alt    "P 1"
_space_group_IT_number       1

loop_
  _space_group_symop_operation_xyz
  'x, y, z'

loop_
  _atom_site_type_symbol
  _atom_site_label
  _atom_site_symmetry_multiplicity
  _atom_site_fract_x
  _atom_site_fract_y
  _atom_site_fract_z
  _atom_site_occupancy
  N   N1        1.0  0.7076454402097585  0.3881660764342669  0.5565329790296514  1.0000
  C   C1        1.0  0.6470606896474107  0.35297675192075184  0.5455222927678531  1.0000
  C   C2        1.0  0.5716999187775247  0.30920510748094565  0.5318261945646245  1.0000
  C   C3        1.0  0.5536292749133728  0.2378096337902229  0.4268469099149179  1.0000
  C   C4        1.0  0.4804578724647581  0.19519925596567878  0.4134662926865258  1.0000
  C   C5        1.0  0.4243084094817525  0.2236068069940631  0.5050326538295511  1.0000
  C   C6        1.0  0.3465460534320656  0.17843785434029424  0.4908945559283111  1.0000
  C   C7        1.0  0.2843631839164665  0.26019301348999746  0.516802740997981  1.0000
  C   C8        1.0  0.2110494784915096  0.217379582336775  0.5034358843115896  1.0000
  C   C9        1.0  0.1478163944369889  0.3018261716388253  0.5297069412401927  1.0000
  N   N2        1.0  0.0969899834093652  0.369715386837147  0.5508281467640395  1.0000
  C   C10       1.0  0.1993351079481627  0.0925530024262966  0.46413559201394494  1.0000
  C   C11       1.0  0.2606606094772473  0.01078399205797731  0.4382190222932949  1.0000
  C   C12       1.0  0.3338549285245052  0.05320290461212851  0.45138348579015664  1.0000
  C   C13       1.0  0.4430704069971412  0.2954966267980468  0.6102309848059504  1.0000
  C   C14       1.0  0.5162947134021962  0.33791663421408  0.6234560190274905  1.0000
  H   H1        1.0  0.5960378134967104  0.21533935554535089  0.35514002835912284  1.0000
  H   H2        1.0  0.46756166508079955  0.14153261291416674  0.33056338397389506  1.0000
  H   H3        1.0  0.2928532533355781  0.35765714492405154  0.5456430535945902  1.0000
  H   H4        1.0  0.1428727593114099  0.058517333112491965  0.4535535140700595  1.0000
  H   H5        1.0  0.251472397462468  0.9141402815515507  0.40817793181313533  1.0000
  H   H6        1.0  0.3805006720547734  0.9874582832694175  0.4323598764662142  1.0000
  H   H7        1.0  0.4013785233568306  0.31742752965630827  0.6832326258780128  1.0000
  H   H8        1.0  0.5297194346557252  0.39280417215215824  0.7053167850657938  1.0000
  C   C15       1.0  0.9023294695082906  0.9975482487738226  0.5538344833151845  1.0000
  C   C16       1.0  0.9478496674898559  0.9854771358000031  0.6649164760242121  1.0000
  C   C17       1.0  0.9701043832452595  0.8621827419436336  0.721804538356595  1.0000
  C   C18       1.0  0.9477582743091945  0.7502594570188351  0.6646415244753663  1.0000
  C   C19       1.0  0.9023131323425899  0.7603229178824507  0.5535378062559184  1.0000
  C   C20       1.0  0.8796991283572434  0.8844363863231504  0.4989782717197879  1.0000
  C   C21       1.0  0.01882291999420116  0.8493226297744206  0.838291694309746  1.0000
  O   O1        1.0  0.06648166087497831  0.7562748924122732  0.8499499516958535  1.0000
  C   C22       1.0  0.013471480261905588  0.9419185243216515  0.9415579513110814  1.0000
  C   C23       1.0  0.07771911055013692  0.968322419793364  0.012181365691481205  1.0000
  C   C24       1.0  0.07304795517806473  0.05428103617288493  0.11074502291178534  1.0000
  C   C25       1.0  0.004224397106095568  0.11382961181816875  0.14051253333971447  1.0000
  C   C26       1.0  0.9398611792114773  0.08712181693050103  0.0721349785337877  1.0000
  C   C27       1.0  0.9442306609531906  0.0012571693039271636  0.9734880719733807  1.0000
  H   H9        1.0  0.8173783341265567  0.22769283931784634  0.34304147239954275  1.0000
  H   H10       1.0  0.9667397123566256  0.07216044002613242  0.7064779400710721  1.0000
  H   H11       1.0  0.9653371861682332  0.655115149644575  0.7078224472214576  1.0000
  H   H12       1.0  0.8446068399360253  0.8929381952645135  0.4133418165769518  1.0000
  H   H13       1.0  0.8853781470001397  0.4367566900182106  0.5102170579040342  1.0000
  H   H14       1.0  0.13161760989674742  0.9233278474249969  0.9903436711894431  1.0000
  H   H15       1.0  0.1228379648411515  0.0746794371865327  0.16411315456535203  1.0000
  H   H16       1.0  0.0007110835439860796  0.18024920922365473  0.2169072809009277  1.0000
  H   H17       1.0  0.8864457313317203  0.13253178928711962  0.09596548019579498  1.0000
  H   H18       1.0  0.8934025580859426  0.9802223542829539  0.9232949903058529  1.0000
  C   C28       1.0  0.9023908919263636  0.3790197764203731  0.17230255928788507  1.0000
  C   C29       1.0  0.980862734757295  0.3899662633964742  0.16877568469894433  1.0000
  C   C30       1.0  0.02034682934846188  0.39696334177967696  0.04970985724261601  1.0000
  C   C31       1.0  0.9806831624768698  0.3899108985892741  0.9335394899578016  1.0000
  C   C32       1.0  0.9022516948383759  0.3788513694038962  0.935069694375342  1.0000
  C   C33       1.0  0.863538116118047  0.37381185911794734  0.05495093058866729  1.0000
  C   C34       1.0  0.10329587489588343  0.40715929998896194  0.045949951756721896  1.0000
  O   O2        1.0  0.1401547727365311  0.3518674015219754  0.9595835955054004  1.0000
  C   C35       1.0  0.14442717905947067  0.48009592410852675  0.14008595760111175  1.0000
  C   C36       1.0  0.2177243412904839  0.43990243795566686  0.1771905613371123  1.0000
  C   C37       1.0  0.2578510279703876  0.5082690691900078  0.2647786003168704  1.0000
  O   O3        1.0  0.3305381385438626  0.4629298318287163  0.2990231123290248  1.0000
  C   C38       1.0  0.37760690835797583  0.5225736243877503  0.38670168896533275  1.0000
  C   C39       1.0  0.22426495015254067  0.6192537306237151  0.3151427878487607  1.0000
  C   C40       1.0  0.15184490108687143  0.6607389426163741  0.27751425914095873  1.0000
  C   C41       1.0  0.11215182748488894  0.5921187399526293  0.1901609899889416  1.0000
  H   H19       1.0  0.7544333375882996  0.35636867614569523  0.38643302305141103  1.0000
  H   H20       1.0  0.01146048865131788  0.3916084324058302  0.258917434153608  1.0000
  H   H21       1.0  0.011107553761626976  0.3943250399949183  0.841697811200683  1.0000
  H   H22       1.0  0.8030420585610865  0.36537206594376714  0.0568661781103601  1.0000
  H   H23       1.0  0.8721926920509178  0.3735158751844698  0.6082839795180854  1.0000
  H   H24       1.0  0.24377995067787128  0.3543506428503067  0.13896309771079807  1.0000
  H   H25       1.0  0.431685662753992  0.46665054880734824  0.39588876757155256  1.0000
  H   H26       1.0  0.3504786902435957  0.5220581613163859  0.4843345855044956  1.0000
  H   H27       1.0  0.3891546992322852  0.6240381203714493  0.3488312388009047  1.0000
  H   H28       1.0  0.25370351067346397  0.6742997072516173  0.38288042695529234  1.0000
  H   H29       1.0  0.12649484681437406  0.7467463805908574  0.3157601254151958  1.0000
  H   H30       1.0  0.05659689817029334  0.6274801333598654  0.16073808797741074  1.0000
  Zn  Zn1       1.0  0.8200018625828399  0.38283813881638107  0.5548942000981683  1.0000
  Zn  Zn2       1.0  0.9846335411176127  0.37503273527410386  0.5524776068358754  1.0000
  C   C42       1.0  0.9022764479748488  0.37370929486383986  0.7908924459414501  1.0000
  C   C43       1.0  0.902360753440045  0.3841631326838948  0.31647946143747396  1.0000
  C   C44       1.0  0.9023132937673016  0.6161435872138155  0.5484185775076136  1.0000
  C   C45       1.0  0.9023238514911033  0.14172728258372658  0.5589534005441097  1.0000
  O   O4        1.0  0.9648275028288543  0.38292151397582175  0.36394946452601284  1.0000
  O   O5        1.0  0.9647613333654068  0.3690258131879709  0.7415879310036422  1.0000
  O   O6        1.0  0.9647902443443581  0.5647946098931913  0.5457885785381591  1.0000
  O   O7        1.0  0.9647985356898335  0.1871527292463473  0.5597487204340867  1.0000
  O   O8        1.0  0.8398368118299083  0.5707181475091538  0.5476230873177892  1.0000
  O   O9        1.0  0.8398079008267352  0.3749509112191427  0.743422369928306  1.0000
  O   O10       1.0  0.8398740706260482  0.38884656709060317  0.3657823420067772  1.0000
  O   O11       1.0  0.8398451034663862  0.19307777305039941  0.5615816952900934  1.0000
