data_image0
_chemical_formula_structural       NC10NC3NCH9C7OC3NC3H11C7OC6OCH12Zn2C4O8
_chemical_formula_sum              "N4 C45 H32 O11 Zn2"
_cell_length_a       19.437513618241372
_cell_length_b       10.298746005989749
_cell_length_c       10.299362532796529
_cell_angle_alpha    85.58216748152913
_cell_angle_beta     90.36260544927384
_cell_angle_gamma    89.53148363849229

_space_group_name_H-M_alt    "P 1"
_space_group_IT_number       1

loop_
  _space_group_symop_operation_xyz
  'x, y, z'

loop_
  _atom_site_type_symbol
  _atom_site_label
  _atom_site_symmetry_multiplicity
  _atom_site_fract_x
  _atom_site_fract_y
  _atom_site_fract_z
  _atom_site_occupancy
  N   N1        1.0  0.647765769119849  0.41016193441306914  0.5758448338701769  1.0000
  C   C1        1.0  0.5888333783017136  0.4271725536014155  0.5728713893070752  1.0000
  C   C2        1.0  0.515394091237537  0.4484257707781345  0.5691805858870229  1.0000
  C   C3        1.0  0.4736207325810813  0.34722511596644834  0.557506111404799  1.0000
  C   C4        1.0  0.39773033824442433  0.35728888653726365  0.5502862990773107  1.0000
  C   C5        1.0  0.3581751006271814  0.4381597460505915  0.6160407774909973  1.0000
  C   C6        1.0  0.28199058041336766  0.42954876048935176  0.6075954050073746  1.0000
  C   C7        1.0  0.2488450001369615  0.3081958602574  0.6122205147705371  1.0000
  C   C8        1.0  0.1771084439718985  0.3018218680582101  0.605051519229735  1.0000
  C   C9        1.0  0.13754686735809854  0.4163281421939897  0.5936195734701641  1.0000
  C   C10       1.0  0.063695777287122  0.409615903313866  0.5862824361728916  1.0000
  N   N2        1.0  0.004324599035701  0.40421985347582123  0.5803838362789064  1.0000
  C   C11       1.0  0.1699759625997261  0.5373706259296731  0.5897396908797645  1.0000
  C   C12       1.0  0.2416969574334445  0.5439986437385436  0.5969707458753486  1.0000
  C   C13       1.0  0.3868839154538229  0.5304730661221091  0.7059743358188748  1.0000
  N   N3        1.0  0.4438709128929829  0.593685637207239  0.6855797125567014  1.0000
  C   C14       1.0  0.48768931988039343  0.5843973222469412  0.5724711090828767  1.0000
  H   H1        1.0  0.49599373872523544  0.2521587960638636  0.545370641277227  1.0000
  H   H2        1.0  0.3729987147652834  0.28775775429654393  0.49195788626642156  1.0000
  H   H3        1.0  0.2782891998321373  0.21827974193184319  0.6232277978853047  1.0000
  H   H4        1.0  0.1525069939499198  0.2075893456482114  0.6089244996557475  1.0000
  H   H5        1.0  0.1398468600590459  0.6266323245590355  0.5810444498001586  1.0000
  H   H6        1.0  0.2658169205453532  0.6386439935616579  0.5930823678249013  1.0000
  H   H7        1.0  0.3568986101486741  0.550879822313703  0.7903437922337937  1.0000
  H   H8        1.0  0.5304494588252631  0.6547164506303327  0.5782450718258503  1.0000
  H   H9        1.0  0.45800755972356977  0.6124871418448508  0.4818300485603535  1.0000
  C   C15       1.0  0.8260156019021395  0.02578927313484214  0.5780968075183088  1.0000
  C   C16       1.0  0.8581828372013004  0.03372253516496726  0.4560036801674092  1.0000
  C   C17       1.0  0.8737245784501484  0.9206224563479598  0.39356928714628014  1.0000
  C   C18       1.0  0.8581833461238854  0.7984859114441637  0.45595455020686715  1.0000
  C   C19       1.0  0.8260813509564044  0.7885823834120703  0.5781431985092969  1.0000
  C   C20       1.0  0.8100355460407315  0.9027988780082571  0.6382824235106725  1.0000
  C   C21       1.0  0.9082777385860943  0.9287988234671573  0.26519535496368385  1.0000
  O   O1        1.0  0.9502817072470012  0.8401132595393213  0.2405181542674517  1.0000
  C   C22       1.0  0.8951815060684812  0.03752457520557395  0.16482428711321573  1.0000
  C   C23       1.0  0.8300330139173681  0.09799873595932174  0.1518876532834572  1.0000
  C   C24       1.0  0.8179635286980758  0.1998420417425042  0.05582849672947798  1.0000
  N   N4        1.0  0.7517138195900643  0.26117702110706364  0.043781208305710306  1.0000
  C   C25       1.0  0.8710849031784552  0.24081764715460996  0.9713717234931658  1.0000
  C   C26       1.0  0.9356051258318988  0.18018863364338422  0.982444313105697  1.0000
  C   C27       1.0  0.9476210529603464  0.078770602920339  0.0781985840754087  1.0000
  H   H10       1.0  0.7661895818297284  0.21807884706595781  0.8096676447422317  1.0000
  H   H11       1.0  0.8718581647955099  0.12799751293864392  0.4099566027467585  1.0000
  H   H12       1.0  0.8705848795495744  0.7110732958245637  0.40841519524848535  1.0000
  H   H13       1.0  0.7852438070567845  0.8959316326765627  0.732396052614531  1.0000
  H   H14       1.0  0.7656835138707369  0.5625473630480164  0.8092182373922121  1.0000
  H   H15       1.0  0.7883775406643706  0.06530809843107366  0.21531911391709824  1.0000
  H   H16       1.0  0.7117481435167554  0.23140796373015693  0.10622273254565195  1.0000
  H   H17       1.0  0.7421592833268338  0.3369301573992094  0.9724221675192619  1.0000
  H   H18       1.0  0.862403953019279  0.31929143913286184  0.8967751052354931  1.0000
  H   H19       1.0  0.9764172980981843  0.21185701575806504  0.9166698394699573  1.0000
  H   H20       1.0  0.9980810498258774  0.033289709421124414  0.08536840966993298  1.0000
  C   C28       1.0  0.8259947775498585  0.4070661688114725  0.19675243985263124  1.0000
  C   C29       1.0  0.7606811387555804  0.34946907631557367  0.1992051396516601  1.0000
  C   C30       1.0  0.7274422994336538  0.32174710405054197  0.08326700435832479  1.0000
  C   C31       1.0  0.7608749017333628  0.3496294188091751  0.9639533161910974  1.0000
  C   C32       1.0  0.8261021953570241  0.4073054533041267  0.9594875967792302  1.0000
  C   C33       1.0  0.8582292871804802  0.435947627524363  0.07642047945878261  1.0000
  C   C34       1.0  0.6588224920794115  0.2595876668403305  0.08819249559369169  1.0000
  O   O2        1.0  0.6447591993414475  0.18060877037941547  0.18390529867040417  1.0000
  C   C35       1.0  0.6061595050802515  0.28701876432334705  0.9846088656130796  1.0000
  C   C36       1.0  0.6008793914698023  0.41048969949079517  0.9166956218160744  1.0000
  C   C37       1.0  0.5505229455793911  0.4355105427532806  0.8203604354181109  1.0000
  C   C38       1.0  0.5042342918638029  0.3386094332666605  0.7907165304613  1.0000
  C   C39       1.0  0.5087908814091305  0.21534412659205704  0.85953879129625  1.0000
  C   C40       1.0  0.559141150847296  0.19019617643687514  0.9559462964769923  1.0000
  O   O3        1.0  0.4547093907430589  0.3685968187503843  0.6931032655869793  1.0000
  C   C41       1.0  0.40453829535765395  0.2796641251789007  0.6530865999425348  1.0000
  H   H21       1.0  0.9493589748364296  0.5152584373778273  0.39943377738602415  1.0000
  H   H22       1.0  0.7352055781022365  0.32715078051170754  0.29141355457858853  1.0000
  H   H23       1.0  0.736278228993269  0.324957145107565  0.8745846261401398  1.0000
  H   H24       1.0  0.9085475665319701  0.48043630376206603  0.07370828758417303  1.0000
  H   H25       1.0  0.8512401441434244  0.42894640300018216  0.6303397268512922  1.0000
  H   H26       1.0  0.6351788878143906  0.4881753977818166  0.9389611401064037  1.0000
  H   H27       1.0  0.5472530996484923  0.5310324557934232  0.7687608776157098  1.0000
  H   H28       1.0  0.47370114847120104  0.13835744392327243  0.8393600299048174  1.0000
  H   H29       1.0  0.5617425322224413  0.09450351986652272  0.007424141618698199  1.0000
  H   H30       1.0  0.3722261303829438  0.32890178718064345  0.5745947737115054  1.0000
  H   H31       1.0  0.3709397376132321  0.24800833328861627  0.7362066343450153  1.0000
  H   H32       1.0  0.4301779151700164  0.19390970179729616  0.6147520702757485  1.0000
  Zn  Zn1       1.0  0.7506609516041354  0.40844369105205525  0.5771622006330694  1.0000
  Zn  Zn2       1.0  0.9014294233438177  0.40592742972278595  0.5790771387017408  1.0000
  C   C42       1.0  0.8260799008100506  0.4020861389301371  0.815313972152639  1.0000
  C   C43       1.0  0.8260121206841495  0.4122865931669475  0.3409255156589326  1.0000
  C   C44       1.0  0.8260646608045458  0.6443966669908041  0.5729592426674242  1.0000
  C   C45       1.0  0.826027309118141  0.16997450555058213  0.5832803136341682  1.0000
  O   O4        1.0  0.8832337899986907  0.413078040982902  0.3900380256094058  1.0000
  O   O5        1.0  0.8832880128638494  0.3993839270639965  0.767654481983312  1.0000
  O   O6        1.0  0.8832749352598108  0.5950527562041406  0.5719513135097116  1.0000
  O   O7        1.0  0.8832468161427516  0.21740922196185397  0.5857410960558083  1.0000
  O   O8        1.0  0.7688435073553204  0.5969618996730757  0.5704982426186964  1.0000
  O   O9        1.0  0.7688565850809916  0.4012946309487182  0.7662013419419706  1.0000
  O   O10       1.0  0.7688023620378157  0.4149886991171563  0.3885833241707113  1.0000
  O   O11       1.0  0.7688153881919737  0.21931987083710025  0.5842864919840065  1.0000
