data_image0
_chemical_formula_structural       NC12NC2H8C7OC6OCH12C7OC3NC3H11Zn2C4O8
_chemical_formula_sum              "N3 C45 H31 O11 Zn2"
_cell_length_a       17.80743265337812
_cell_length_b       10.299359160628079
_cell_length_c       10.298749378158432
_cell_angle_alpha    85.56206142688012
_cell_angle_beta     91.54305523849354
_cell_angle_gamma    89.45809633783337

_space_group_name_H-M_alt    "P 1"
_space_group_IT_number       1

loop_
  _space_group_symop_operation_xyz
  'x, y, z'

loop_
  _atom_site_type_symbol
  _atom_site_label
  _atom_site_symmetry_multiplicity
  _atom_site_fract_x
  _atom_site_fract_y
  _atom_site_fract_z
  _atom_site_occupancy
  N   N1        1.0  0.7076106770900039  0.40677893532521203  0.6014150327674594  1.0000
  C   C1        1.0  0.6567909711595755  0.43634160593948335  0.532715178780373  1.0000
  C   C2        1.0  0.5935662425495254  0.4731154221241909  0.44726120876986686  1.0000
  C   C3        1.0  0.6052930135500636  0.5271432309364308  0.32063933879040163  1.0000
  C   C4        1.0  0.5439755256672134  0.5624133124482431  0.2375813275601968  1.0000
  C   C5        1.0  0.47077695999106856  0.5439190863956636  0.2804852707429033  1.0000
  C   C6        1.0  0.45807343412980134  0.48977244997335556  0.4075753018026411  1.0000
  C   C7        1.0  0.5202482372399312  0.4545056232121827  0.490616800565955  1.0000
  C   C8        1.0  0.3803066846920456  0.4701639384121279  0.45333960027088893  1.0000
  C   C9        1.0  0.36153977574584156  0.49734493567641636  0.5803969149433752  1.0000
  C   C10       1.0  0.2883112777056508  0.47889228189867605  0.6233414295663171  1.0000
  C   C11       1.0  0.2329067453375688  0.43300431507817216  0.5400666255829198  1.0000
  C   C12       1.0  0.15754165674131  0.41399875957237153  0.5844120967018787  1.0000
  N   N2        1.0  0.0969534625509324  0.398719571162782  0.6200628048054382  1.0000
  C   C13       1.0  0.2509821773197012  0.40565437679645644  0.4135522977772099  1.0000
  C   C14       1.0  0.32415779773651804  0.4241218281314836  0.370351879310991  1.0000
  H   H1        1.0  0.6617585895510623  0.5419688832865699  0.2862017917224302  1.0000
  H   H2        1.0  0.5531733186345565  0.6045157287796217  0.13980069161146558  1.0000
  H   H3        1.0  0.424137738402368  0.5735582244785646  0.2148936012098781  1.0000
  H   H4        1.0  0.5117485014326613  0.41101787565258263  0.5882727977067514  1.0000
  H   H5        1.0  0.40323125258072917  0.5345219603954436  0.645979783606947  1.0000
  H   H6        1.0  0.2748828058737557  0.5007337894016948  0.7213604209765612  1.0000
  H   H7        1.0  0.2085741499901768  0.3697446411351204  0.3483825823487632  1.0000
  H   H8        1.0  0.33705755879013016  0.40074472802361205  0.2726360416552165  1.0000
  C   C15       1.0  0.9021972577033919  0.021372731177239812  0.6107033460945652  1.0000
  C   C16       1.0  0.840051269676073  0.02794639225217388  0.5233232449655028  1.0000
  C   C17       1.0  0.8092449862762097  0.9142663019245065  0.47818367867802736  1.0000
  C   C18       1.0  0.8402302426993531  0.7926811553561204  0.5235869432814928  1.0000
  C   C19       1.0  0.9023740801039984  0.7841156127116534  0.6107860673329635  1.0000
  C   C20       1.0  0.9331034357143612  0.8990530263914297  0.6536362454675568  1.0000
  C   C21       1.0  0.7431032847224788  0.9233546432960018  0.3870753875568236  1.0000
  O   O1        1.0  0.6953628775264323  0.01321467914774166  0.3963562821732711  1.0000
  C   C22       1.0  0.7311184243073742  0.8305723754610245  0.28544592511416234  1.0000
  C   C23       1.0  0.7922184452680741  0.7759635765502947  0.22431213013594897  1.0000
  C   C24       1.0  0.7801346637506661  0.6898342743763798  0.1276440119506892  1.0000
  C   C25       1.0  0.7071484799339188  0.6574333597073464  0.08938287341712559  1.0000
  C   C26       1.0  0.6457954686323076  0.7130822696236404  0.1491926892366524  1.0000
  C   C27       1.0  0.657810557620665  0.7992718795948788  0.24590394250413827  1.0000
  O   O2        1.0  0.6980406184217093  0.5704021275905642  0.9920407304769783  1.0000
  C   C28       1.0  0.6272395806905031  0.5290266205011431  0.9437780783508201  1.0000
  H   H9        1.0  0.019270360161702804  0.21621016230927959  0.7759984443976149  1.0000
  H   H10       1.0  0.8158872937485191  0.12177710928247953  0.4891785235436361  1.0000
  H   H11       1.0  0.8152877488644842  0.7045625788461749  0.4919384584030577  1.0000
  H   H12       1.0  0.9810407815102639  0.8931777398008472  0.7209060610672782  1.0000
  H   H13       1.0  0.9260208140347093  0.45332827223464467  0.6446393287351959  1.0000
  H   H14       1.0  0.8493365707957055  0.8008675041242959  0.2501807649832759  1.0000
  H   H15       1.0  0.8278085689969213  0.6484033627455942  0.08174232326382702  1.0000
  H   H16       1.0  0.5886457990848367  0.6904561090947445  0.12167779864740824  1.0000
  H   H17       1.0  0.609716687229999  0.8406657697085583  0.2907346729585545  1.0000
  H   H18       1.0  0.6366106478077537  0.4604429655110555  0.8677460815348166  1.0000
  H   H19       1.0  0.5942245716600711  0.6140614714008469  0.8996834418635  1.0000
  H   H20       1.0  0.5957106048272716  0.47810375760780993  0.023810118051062146  1.0000
  C   C29       1.0  0.9022510222343209  0.4027729159243245  0.22934197304715087  1.0000
  C   C30       1.0  0.9433142866968387  0.5187903930562678  0.22130040312379662  1.0000
  C   C31       1.0  0.9633247530948752  0.5782733726352915  0.0999593137156114  1.0000
  C   C32       1.0  0.943317283758111  0.5188391935825256  0.9860565220028921  1.0000
  C   C33       1.0  0.902320285477734  0.402715448539392  0.9921473947359614  1.0000
  C   C34       1.0  0.881874778908432  0.34560335850400437  0.1142165933833108  1.0000
  C   C35       1.0  0.007296327517340995  0.7001339850920534  0.09139716161537104  1.0000
  O   O3        1.0  0.05424272349114001  0.7175054283520041  0.002300549764838955  1.0000
  C   C36       1.0  0.9980113601811832  0.802279372518182  0.18385206097872353  1.0000
  C   C37       1.0  0.9277335476914382  0.826308648660719  0.23719254058965245  1.0000
  C   C38       1.0  0.9193526607218704  0.9239864332183481  0.32350089629953716  1.0000
  N   N3        1.0  0.8478320286523794  0.9473190422154247  0.37774966575640634  1.0000
  C   C39       1.0  0.9813618767432366  0.998955737514895  0.3558759472236066  1.0000
  C   C40       1.0  0.05104813378925832  0.9768894031590263  0.3020479905034983  1.0000
  C   C41       1.0  0.05938579896209961  0.879524191064514  0.2161143996293926  1.0000
  H   H21       1.0  0.8256570803446109  0.1825226884172284  0.4520245752384784  1.0000
  H   H22       1.0  0.960481404412333  0.56228186568152  0.3096730462810702  1.0000
  H   H23       1.0  0.9591716819871547  0.5640340327493238  0.8924139916659457  1.0000
  H   H24       1.0  0.8502259879934051  0.2561723518612007  0.11966357357926616  1.0000
  H   H25       1.0  0.825128487403557  0.18305659861537826  0.7963848047176314  1.0000
  H   H26       1.0  0.8792470689704494  0.7703037596420381  0.21082171647697479  1.0000
  H   H27       1.0  0.8012339965740565  0.8920102564469874  0.3542843544604397  1.0000
  H   H28       1.0  0.8409654976724489  0.019981250363196423  0.44191556989303704  1.0000
  H   H29       1.0  0.9756067038108434  0.07469097150315607  0.4223407235841723  1.0000
  H   H30       1.0  0.09873260922833538  0.03537076690487018  0.3269739976851809  1.0000
  H   H31       1.0  0.1139598012799452  0.8637494809196531  0.17572635655586621  1.0000
  Zn  Zn1       1.0  0.8199665979219544  0.40444970900728117  0.6068038641836198  1.0000
  Zn  Zn2       1.0  0.9845975377315511  0.4010382030143165  0.6146845662307776  1.0000
  C   C42       1.0  0.9023043341148951  0.39755258372655056  0.8479601985028145  1.0000
  C   C43       1.0  0.9022615996947931  0.40793692968388484  0.3735284456239787  1.0000
  C   C44       1.0  0.9023363127853393  0.6399414773358518  0.6055945822186812  1.0000
  C   C45       1.0  0.9022295644919001  0.1655464769000523  0.6158941282946078  1.0000
  O   O4        1.0  0.9647417319501241  0.4083697052769002  0.4249094277225589  1.0000
  O   O5        1.0  0.9647752756133281  0.3945295743080355  0.8025601129256252  1.0000
  O   O6        1.0  0.9648002567025696  0.5902616886742724  0.606848122829168  1.0000
  O   O7        1.0  0.9647166946768032  0.21263760137251841  0.6206213177475759  1.0000
  O   O8        1.0  0.8398473847962419  0.5928503118146728  0.6008671099706928  1.0000
  O   O9        1.0  0.8398224040589891  0.39711975778856146  0.7965790309845258  1.0000
  O   O10       1.0  0.8397888602934271  0.41095984361712445  0.4189267842398825  1.0000
  O   O11       1.0  0.8397638230237252  0.21522773041648158  0.614638771640212  1.0000
