data_image0
_chemical_formula_structural       NC9NC5H8C7OC3NC3H11C7OC6OCH12Zn2C4O8
_chemical_formula_sum              "N3 C45 H31 O11 Zn2"
_cell_length_a       17.807436237873137
_cell_length_b       10.298746005989749
_cell_length_c       10.299362532796529
_cell_angle_alpha    85.58216748152913
_cell_angle_beta     89.40785739381339
_cell_angle_gamma    88.3993582553778

_space_group_name_H-M_alt    "P 1"
_space_group_IT_number       1

loop_
  _space_group_symop_operation_xyz
  'x, y, z'

loop_
  _atom_site_type_symbol
  _atom_site_label
  _atom_site_symmetry_multiplicity
  _atom_site_fract_x
  _atom_site_fract_y
  _atom_site_fract_z
  _atom_site_occupancy
  N   N1        1.0  0.7073206573878152  0.38743130579193075  0.5572202023039616  1.0000
  C   C1        1.0  0.6467281332538773  0.35223539950105254  0.5461942827604003  1.0000
  C   C2        1.0  0.5713576929112696  0.3084555680459986  0.5324792360330208  1.0000
  C   C3        1.0  0.5532434887452231  0.23700297824230554  0.4274728422561789  1.0000
  C   C4        1.0  0.4800626572565543  0.19438460525084134  0.41407378141027795  1.0000
  C   C5        1.0  0.4239472709933135  0.22284125205981442  0.5056486406815894  1.0000
  C   C6        1.0  0.3461749351869018  0.177663848506179  0.4914909895883406  1.0000
  C   C7        1.0  0.2840102359639965  0.259434472290339  0.5174345510231901  1.0000
  C   C8        1.0  0.2106870826345759  0.21661304892365418  0.5040491592664929  1.0000
  C   C9        1.0  0.1474726022680486  0.3010753524610239  0.5303567796912836  1.0000
  N   N2        1.0  0.0966611476860963  0.36897720139632173  0.5515073796861045  1.0000
  C   C10       1.0  0.1989450555560903  0.09176299328772486  0.46469484130171335  1.0000
  C   C11       1.0  0.2602523823705806  0.009978513549197432  0.43874288940590267  1.0000
  C   C12       1.0  0.3334560356228911  0.0524053027185607  0.4519257208159586  1.0000
  C   C13       1.0  0.4427529596590056  0.29478831452428267  0.6108742918271988  1.0000
  C   C14       1.0  0.5159866207633595  0.3372162306544837  0.6241176916681774  1.0000
  H   H1        1.0  0.5956253154717297  0.21449424763472402  0.35575920553949003  1.0000
  H   H2        1.0  0.4671323640727483  0.14067291512773905  0.33115067871864134  1.0000
  H   H3        1.0  0.2925212790309191  0.3569159563418771  0.5463171314551822  1.0000
  H   H4        1.0  0.1424752109401664  0.057720993789702524  0.45409802637968366  1.0000
  H   H5        1.0  0.2510428878488006  0.9133168320554348  0.4086599532235675  1.0000
  H   H6        1.0  0.3800877761588302  0.9866492042029045  0.4328735798492025  1.0000
  H   H7        1.0  0.4010881608516664  0.31675834388165214  0.6838823873124558  1.0000
  H   H8        1.0  0.5294452186318342  0.39214828984734806  0.705999245650331  1.0000
  C   C15       1.0  0.9019585881234091  0.9968037126480395  0.554347117450128  1.0000
  C   C16       1.0  0.9370832444464285  0.0036082001824897514  0.43132911426522935  1.0000
  C   C17       1.0  0.9540538766736044  0.8899627490020526  0.3684478634160766  1.0000
  C   C18       1.0  0.9370838001588089  0.7683715586031775  0.43127996967209015  1.0000
  C   C19       1.0  0.9020303820750231  0.7595945157373826  0.5543916180171851  1.0000
  C   C20       1.0  0.884509343109516  0.8743740707017655  0.6149921937397389  1.0000
  C   C21       1.0  0.9917838171973088  0.8969266175790626  0.2390804550301069  1.0000
  O   O1        1.0  0.03764958556987774  0.8067671001671727  0.21319555167664528  1.0000
  C   C22       1.0  0.9774835311444531  0.006111926786992239  0.13908593147570003  1.0000
  C   C23       1.0  0.90634535667938  0.06887220121162185  0.1280224541498085  1.0000
  C   C24       1.0  0.8931662159673878  0.17113903506505213  0.03231032074234208  1.0000
  N   N3        1.0  0.8208255798425416  0.23479877070075394  0.022167851131680738  1.0000
  C   C25       1.0  0.951171512495884  0.21025056816472532  0.9463261959923299  1.0000
  C   C26       1.0  0.021623655041252743  0.1473574874711887  0.9555436931736518  1.0000
  C   C27       1.0  0.034744313589119  0.04551780807494121  0.05095248090488069  1.0000
  H   H9        1.0  0.8366322280966799  0.19119263036818324  0.7876380788841273  1.0000
  H   H10       1.0  0.9520158669545198  0.0974032995685834  0.38488884234414167  1.0000
  H   H11       1.0  0.9506255172322413  0.6805237630712231  0.38338404448119423  1.0000
  H   H12       1.0  0.8574382783020331  0.8683767876906828  0.7098186376085533  1.0000
  H   H13       1.0  0.8360796327937154  0.535678904687254  0.7872032220548866  1.0000
  H   H14       1.0  0.8608601240077853  0.03764328817961893  0.19265159746295835  1.0000
  H   H15       1.0  0.777185502486291  0.2064321414602539  0.08575847281956439  1.0000
  H   H16       1.0  0.8103926097892975  0.31088718345516453  0.9510835234069153  1.0000
  H   H17       1.0  0.9416924451137308  0.2890289817570755  0.8719791733540414  1.0000
  H   H18       1.0  0.06618805454022159  0.1775937372083476  0.8885957835397287  1.0000
  H   H19       1.0  0.08984354830664709  0.9982662321722199  0.05667147520319471  1.0000
  C   C28       1.0  0.901935849202572  0.37808133906815833  0.17300334852848342  1.0000
  C   C29       1.0  0.8306173446895437  0.32277615537340676  0.1773339531455531  1.0000
  C   C30       1.0  0.7943225622222053  0.29622056106232497  0.06235150456116645  1.0000
  C   C31       1.0  0.8308289220271494  0.3229296985662451  0.9420765585908626  1.0000
  C   C32       1.0  0.9020531428874216  0.37831685418243843  0.9357354169666539  1.0000
  C   C33       1.0  0.9371339649867463  0.4058316625742697  0.051744578021770016  1.0000
  C   C34       1.0  0.7193939235669452  0.23646904880181085  0.06924995993116778  1.0000
  O   O2        1.0  0.7040376668169632  0.1579836447414762  0.1653671123241589  1.0000
  C   C35       1.0  0.6618891581717858  0.26574813340706105  0.967180501857738  1.0000
  C   C36       1.0  0.6561235965937177  0.38940435206319957  0.899419072459255  1.0000
  C   C37       1.0  0.6011374332166134  0.4161922440411039  0.8045317400486489  1.0000
  C   C38       1.0  0.5505930504527734  0.32091544112815606  0.7762187314779192  1.0000
  C   C39       1.0  0.555568567941181  0.19749024001381632  0.844909980756646  1.0000
  C   C40       1.0  0.6105479870096615  0.17057545787995743  0.9398698095360563  1.0000
  O   O3        1.0  0.4965148831772964  0.3526406957438093  0.680029411925656  1.0000
  C   C41       1.0  0.4417311112313206  0.26546854678750553  0.6414552710507677  1.0000
  H   H20       1.0  0.03664201813369572  0.4819446574377839  0.37213770529744594  1.0000
  H   H21       1.0  0.8027995883836957  0.3013518177496921  0.27027484415215497  1.0000
  H   H22       1.0  0.8039708576442242  0.2991205421518148  0.853415074739087  1.0000
  H   H23       1.0  0.9920784528343815  0.4485546293915017  0.04758562952826617  1.0000
  H   H24       1.0  0.929502247654315  0.39907569277383126  0.6058647780120157  1.0000
  H   H25       1.0  0.6935765517498528  0.4658864530811502  0.9206984079150207  1.0000
  H   H26       1.0  0.5975669611669052  0.511828898639147  0.7530261972106747  1.0000
  H   H27       1.0  0.5172527226890571  0.12173488466402671  0.8257401231679165  1.0000
  H   H28       1.0  0.6133885365911628  0.0747915167176132  0.9912728594786566  1.0000
  H   H29       1.0  0.4064482005542254  0.31584006898532335  0.5638924876874691  1.0000
  H   H30       1.0  0.4050435382165293  0.2349917556637049  0.7255413348252491  1.0000
  H   H31       1.0  0.4697280101188543  0.17881440825618888  0.6023835482575959  1.0000
  Zn  Zn1       1.0  0.819675912306139  0.3821023866412212  0.5555791156334282  1.0000
  Zn  Zn2       1.0  0.9843058752156758  0.37429553679637184  0.5531591422698878  1.0000
  C   C42       1.0  0.9020287986037726  0.373098322142267  0.7915624333552926  1.0000
  C   C43       1.0  0.9019547868459805  0.3833011548389209  0.3171759256831088  1.0000
  C   C44       1.0  0.9020121574485495  0.6154093849871438  0.5492081420523671  1.0000
  C   C45       1.0  0.9019713716882612  0.14098853424803126  0.5595302869588448  1.0000
  O   O4        1.0  0.9644373549066293  0.3820846476558979  0.3646431919986255  1.0000
  O   O5        1.0  0.9644965629637048  0.36838863101247465  0.7422580893508388  1.0000
  O   O6        1.0  0.9644822830188131  0.5640579190564001  0.546555296885926  1.0000
  O   O7        1.0  0.9644515786603685  0.1864153715368415  0.5603458879159227  1.0000
  O   O8        1.0  0.839530152681319  0.5699825545662582  0.5483923708063803  1.0000
  O   O9        1.0  0.8395444327590261  0.37431482693385165  0.7440950941174693  1.0000
  O   O10       1.0  0.8394852245075667  0.38801079783305426  0.36647863537302117  1.0000
  O   O11       1.0  0.8394994482723309  0.1923415124546355  0.5621814286569211  1.0000
