data_image0
_chemical_formula_structural       NC10NC5H10C6NCOC6H11C7OC3OC4H12Zn2C4O8
_chemical_formula_sum              "N3 C46 H33 O11 Zn2"
_cell_length_a       19.4436361288709
_cell_length_b       10.29965916528486
_cell_length_c       10.299374482448636
_cell_angle_alpha    85.56574019764442
_cell_angle_beta     89.68637327173957
_cell_angle_gamma    89.4352492152202

_space_group_name_H-M_alt    "P 1"
_space_group_IT_number       1

loop_
  _space_group_symop_operation_xyz
  'x, y, z'

loop_
  _atom_site_type_symbol
  _atom_site_label
  _atom_site_symmetry_multiplicity
  _atom_site_fract_x
  _atom_site_fract_y
  _atom_site_fract_z
  _atom_site_occupancy
  N   N1        1.0  0.6481069555504765  0.4096104617573919  0.5625234222972832  1.0000
  C   C1        1.0  0.5892710121025669  0.4195061246608336  0.5769113712072615  1.0000
  C   C2        1.0  0.5159417123418726  0.4318473206851685  0.5949086466915043  1.0000
  C   C3        1.0  0.47376317484672564  0.39989049296290036  0.5002201863183156  1.0000
  C   C4        1.0  0.3978595380148549  0.41032627233505736  0.5055520711448367  1.0000
  C   C5        1.0  0.3581047054026527  0.3855348222313739  0.6126201481427043  1.0000
  C   C6        1.0  0.2819861841789214  0.38945668543256784  0.5996616138400654  1.0000
  C   C7        1.0  0.2414218626619497  0.44707753357279345  0.6934558370239159  1.0000
  C   C8        1.0  0.1697601834536656  0.4507195405448583  0.6829127791901366  1.0000
  C   C9        1.0  0.1376679775274505  0.39634458109339477  0.5788618994144821  1.0000
  C   C10       1.0  0.0638770801511279  0.4000478937478469  0.5681635746403981  1.0000
  N   N2        1.0  0.0045542036211278  0.4030251627345989  0.5595628308260276  1.0000
  C   C11       1.0  0.1775072568874978  0.33801650472731715  0.485450682238445  1.0000
  C   C12       1.0  0.24918538450500743  0.33432037952018545  0.49574193410988476  1.0000
  C   C13       1.0  0.3862168196491597  0.3450210127560791  0.7437059402814643  1.0000
  C   C14       1.0  0.4448818393104443  0.3881220643972898  0.7909651583931125  1.0000
  C   C15       1.0  0.48911254044971986  0.4860081283217712  0.7166285855553596  1.0000
  H   H1        1.0  0.49586768219338434  0.37081162885782026  0.40989979740820015  1.0000
  H   H2        1.0  0.3731748696169641  0.4328588169568164  0.4123978441463805  1.0000
  H   H3        1.0  0.2652900487567856  0.49033367884794976  0.7743222553843829  1.0000
  H   H4        1.0  0.139414290943141  0.4960026327127689  0.7558521208046061  1.0000
  H   H5        1.0  0.1531671814400387  0.2949558727053907  0.4049188274078881  1.0000
  H   H6        1.0  0.2788652380689672  0.28679367663751987  0.42349817864883077  1.0000
  H   H7        1.0  0.3552343541396142  0.2807792671145619  0.8079332006575857  1.0000
  H   H8        1.0  0.4600156977115086  0.35401532058291174  0.8888916647738301  1.0000
  H   H9        1.0  0.459020309448012  0.576730139349273  0.6914069903641895  1.0000
  H   H10       1.0  0.5323946027969524  0.5115672497992358  0.7797248563059291  1.0000
  C   C16       1.0  0.8262733895941436  0.024958212759755183  0.5609281448276557  1.0000
  C   C17       1.0  0.8267638214177531  0.034262391639100276  0.42410520399237406  1.0000
  C   C18       1.0  0.8280250793292461  0.9220947772138697  0.35525768683425096  1.0000
  C   C19       1.0  0.8268933601134822  0.7990696356745952  0.42440051861164574  1.0000
  C   C20       1.0  0.8263943321391461  0.7876672700098912  0.5611693061014025  1.0000
  C   C21       1.0  0.8263291861684507  0.9012150778449938  0.6286591312064052  1.0000
  N   N3        1.0  0.8274699065176836  0.9352108919640021  0.21519322397665497  1.0000
  C   C22       1.0  0.8597233115482763  0.8435049742604749  0.1351975516864472  1.0000
  O   O1        1.0  0.9071624732893748  0.7697987988457214  0.18178256348761135  1.0000
  C   C23       1.0  0.8397549384977097  0.8377099683960285  0.9969942745742335  1.0000
  C   C24       1.0  0.7761641942007486  0.8887530462046686  0.951175703196312  1.0000
  C   C25       1.0  0.7577558897630025  0.8821106241362867  0.8208032411549739  1.0000
  C   C26       1.0  0.8022978881084396  0.824220945567299  0.7349748896263759  1.0000
  C   C27       1.0  0.8652834046688765  0.7724018534607303  0.7794222399880923  1.0000
  C   C28       1.0  0.8839542951315456  0.7786831164865778  0.9096880443181101  1.0000
  H   H11       1.0  0.824691806196606  0.21468352723927708  0.8190255230953845  1.0000
  H   H12       1.0  0.826693725420305  0.12888571671676363  0.3702816859885387  1.0000
  H   H13       1.0  0.8251941638391762  0.7123229151046924  0.3716082130091629  1.0000
  H   H14       1.0  0.8259603153186403  0.8931770479750422  0.734134102219608  1.0000
  H   H15       1.0  0.8252878699962493  0.45586114610105627  0.6136410583591745  1.0000
  H   H16       1.0  0.8078531396138956  0.021717114736205634  0.1694147909108321  1.0000
  H   H17       1.0  0.7401117827021293  0.9321006659910667  0.015958809805747487  1.0000
  H   H18       1.0  0.7087450463542803  0.9214576400023594  0.7864238608422531  1.0000
  H   H19       1.0  0.7879113533554754  0.8191533283173014  0.6341348339625426  1.0000
  H   H20       1.0  0.8997087758860973  0.7272889362882865  0.7128888920364171  1.0000
  H   H21       1.0  0.9331377444213612  0.7381473172024067  0.9418472378356206  1.0000
  C   C29       1.0  0.8263975952080159  0.40639906969604245  0.17966569929291376  1.0000
  C   C30       1.0  0.8982416494298533  0.4197357541129394  0.17670226654827537  1.0000
  C   C31       1.0  0.934391154186452  0.4279353633568195  0.05792099225309322  1.0000
  C   C32       1.0  0.8980772385524076  0.41967492224580316  0.9414647610654172  1.0000
  C   C33       1.0  0.8262701282590547  0.40622643554354476  0.9424317298413101  1.0000
  C   C34       1.0  0.7908263907027749  0.40000770594556156  0.06203525015904732  1.0000
  C   C35       1.0  0.01033401832617531  0.44065800877417827  0.05475570591310719  1.0000
  O   O2        1.0  0.04406901863940882  0.38649396197887076  0.9686113806661432  1.0000
  C   C36       1.0  0.04800331663805624  0.5148417310796689  0.14923443583670548  1.0000
  C   C37       1.0  0.11510076377257494  0.47688512625309665  0.18682976748558966  1.0000
  C   C38       1.0  0.1518495059867806  0.5464686336265736  0.27475019293332625  1.0000
  O   O3        1.0  0.2183875251358356  0.5033481275555953  0.309477483411811  1.0000
  C   C39       1.0  0.2614902902893357  0.5644210739830937  0.39753145690070246  1.0000
  C   C40       1.0  0.12112074321542132  0.6564204191417036  0.32495480578793834  1.0000
  C   C41       1.0  0.05482653599843457  0.6956953663054908  0.2868426717290713  1.0000
  C   C42       1.0  0.018474727627397103  0.6258715218451545  0.19915990802975436  1.0000
  H   H22       1.0  0.6909362844898622  0.37924145742281645  0.39273238262041943  1.0000
  H   H23       1.0  0.9262546269674043  0.4223101333269965  0.2670618612181326  1.0000
  H   H24       1.0  0.9259319940450876  0.42501575481970266  0.8498416548163887  1.0000
  H   H25       1.0  0.7354398737759374  0.38972524524842767  0.06351612458412248  1.0000
  H   H26       1.0  0.7987497270335187  0.39997546258019145  0.6154293802725461  1.0000
  H   H27       1.0  0.13893980585734655  0.39213457504247584  0.1487264865441671  1.0000
  H   H28       1.0  0.31099020513321873  0.5101506136201168  0.4070620688549116  1.0000
  H   H29       1.0  0.2366539235529015  0.5630790255111182  0.494971873407825  1.0000
  H   H30       1.0  0.27208053881200867  0.6662287893506087  0.3598143465135195  1.0000
  H   H31       1.0  0.14808197826113845  0.7123587282233144  0.39293974547509314  1.0000
  H   H32       1.0  0.031633520984590824  0.7809230206269198  0.3249696732702394  1.0000
  H   H33       1.0  0.9676196895748896  0.6595370732756622  0.16936851699765798  1.0000
  Zn  Zn1       1.0  0.7509699311204509  0.4077066137254579  0.561676570870715  1.0000
  Zn  Zn2       1.0  0.9016912160992625  0.4049184009269333  0.5604203604736859  1.0000
  C   C43       1.0  0.8262918738718956  0.4010855539180245  0.7982510301115371  1.0000
  C   C44       1.0  0.8263709194581154  0.4115410688376122  0.3238460155044096  1.0000
  C   C45       1.0  0.8263688048807496  0.6435002875765286  0.5559484062074549  1.0000
  C   C46       1.0  0.8262939367596183  0.16912477585064756  0.5661487085849548  1.0000
  O   O4        1.0  0.8835599080931691  0.41220299289401785  0.37175751963798476  1.0000
  O   O5        1.0  0.883496852989727  0.3983064612485885  0.7493857171836669  1.0000
  O   O6        1.0  0.8835582044710267  0.5940594383888078  0.5537246409034344  1.0000
  O   O7        1.0  0.8834985051986496  0.2164500260172575  0.5674184989715405  1.0000
  O   O8        1.0  0.7691625905872876  0.5961749895880291  0.5546784327947125  1.0000
  O   O9        1.0  0.7691012393618549  0.4004235727291656  0.7503394403203338  1.0000
  O   O10       1.0  0.7691642947647834  0.4143200594722707  0.3727096813014521  1.0000
  O   O11       1.0  0.7691028918497075  0.21856708328494645  0.5683707580035366  1.0000
