data_image0
_chemical_formula_structural       NC11NC3H8C7OC3FC3H9C7OC3OC4H12Zn2C4O8
_chemical_formula_sum              "N2 C45 H29 O11 F1 Zn2"
_cell_length_a       17.807433833752565
_cell_length_b       10.29937835083307
_cell_length_c       10.299374482448636
_cell_angle_alpha    85.53885586126866
_cell_angle_beta     88.50658755346606
_cell_angle_gamma    90.70491928007121

_space_group_name_H-M_alt    "P 1"
_space_group_IT_number       1

loop_
  _space_group_symop_operation_xyz
  'x, y, z'

loop_
  _atom_site_type_symbol
  _atom_site_label
  _atom_site_symmetry_multiplicity
  _atom_site_fract_x
  _atom_site_fract_y
  _atom_site_fract_z
  _atom_site_occupancy
  N   N1        1.0  0.7079773262571044  0.43888678712658735  0.5343851028502002  1.0000
  C   C1        1.0  0.6571385774141909  0.40414279102331907  0.6009551266626145  1.0000
  C   C2        1.0  0.5938900503623681  0.36092412447682154  0.6837597412523819  1.0000
  C   C3        1.0  0.6055817349116573  0.29734209090249797  0.8064922384870377  1.0000
  C   C4        1.0  0.5442413638448941  0.2558038137298291  0.8870125879448405  1.0000
  C   C5        1.0  0.4710547794303134  0.27753413624834256  0.8454413065633386  1.0000
  C   C6        1.0  0.45838641704205396  0.34127083685044757  0.722248571963968  1.0000
  C   C7        1.0  0.3806323936822012  0.36433199477902  0.6778963374105433  1.0000
  C   C8        1.0  0.3618687862784341  0.3474896107919232  0.5483136348524551  1.0000
  C   C9        1.0  0.2886522592759487  0.369181214009594  0.5066982860682923  1.0000
  C   C10       1.0  0.23325648072953034  0.4080339365368246  0.5938452875390465  1.0000
  C   C11       1.0  0.1579036158785623  0.43038435544288145  0.5508684953508798  1.0000
  N   N2        1.0  0.0973252850689357  0.4483524318058012  0.5163182822790466  1.0000
  C   C12       1.0  0.2513286646646773  0.4250870322289777  0.7228968047605817  1.0000
  C   C13       1.0  0.3244923764021502  0.40336043716956027  0.7647675976331347  1.0000
  C   C14       1.0  0.5205840960704313  0.3828045450143589  0.6417446396293547  1.0000
  H   H1        1.0  0.6620378584635789  0.2799189701531628  0.8398616231282736  1.0000
  H   H2        1.0  0.5534120109941406  0.20632699544483057  0.981759645623888  1.0000
  H   H3        1.0  0.4243968354257013  0.24296161236986724  0.9088879040662026  1.0000
  H   H4        1.0  0.4035530102001211  0.315862629946839  0.4795992637278714  1.0000
  H   H5        1.0  0.2752260167465092  0.35532350212012753  0.40666208571087914  1.0000
  H   H6        1.0  0.2089274962618291  0.45549105518502286  0.7910965703608506  1.0000
  H   H7        1.0  0.3373905409114589  0.418763667969432  0.8646208065166834  1.0000
  H   H8        1.0  0.5121121671691399  0.4336437192212914  0.5472317037614054  1.0000
  C   C15       1.0  0.9025756989855854  0.0622327849808717  0.5254191949495561  1.0000
  C   C16       1.0  0.8241942764353246  0.06033876234085134  0.5130309628761245  1.0000
  C   C17       1.0  0.7845651962024686  0.9420929730460053  0.5082645233750447  1.0000
  C   C18       1.0  0.8243779750269431  0.8250992237460375  0.5130293142250553  1.0000
  C   C19       1.0  0.9027340724400224  0.8249966367990605  0.5252950481170959  1.0000
  C   C20       1.0  0.9413563174800234  0.9440718055929851  0.5317620390248465  1.0000
  C   C21       1.0  0.7018929075350652  0.9400579883488074  0.4938058381076391  1.0000
  O   O1        1.0  0.6728868831141217  0.8546786128711326  0.4284884246627563  1.0000
  C   C22       1.0  0.6521262222527543  0.034781691952439076  0.5534561157032873  1.0000
  C   C23       1.0  0.585215512652071  0.07316865081388801  0.49277784460102336  1.0000
  C   C24       1.0  0.537482374439524  0.1612519036574116  0.5490556239422386  1.0000
  F   F1        1.0  0.473392197283158  0.19839924977935097  0.48930787002258325  1.0000
  C   C25       1.0  0.5557461149563174  0.2109638191395089  0.6668174353300025  1.0000
  C   C26       1.0  0.6215780582116106  0.17229799016885772  0.7287603705338961  1.0000
  C   C27       1.0  0.6694664652801974  0.08429002156976173  0.6728801128496831  1.0000
  H   H9        1.0  0.050622193679080496  0.27328541465053613  0.5467949906662837  1.0000
  H   H10       1.0  0.7939676607714664  0.15111748702714722  0.505620116310626  1.0000
  H   H11       1.0  0.7939652677322455  0.7338927302343614  0.5083880264318315  1.0000
  H   H12       1.0  0.001782569560102365  0.944727953149484  0.5413117032073222  1.0000
  H   H13       1.0  0.9329058131985423  0.4975873893243687  0.5289075881786875  1.0000
  H   H14       1.0  0.5702640306971691  0.03582573890062357  0.40130998006886776  1.0000
  H   H15       1.0  0.5187748178870365  0.27904281231380756  0.7104134809590732  1.0000
  H   H16       1.0  0.635368047332958  0.21009977559173865  0.8204957095744569  1.0000
  H   H17       1.0  0.7195245100717491  0.05393216314634541  0.7237113337305634  1.0000
  C   C28       1.0  0.902724507047091  0.4437038842293264  0.14397133843192567  1.0000
  C   C29       1.0  0.981200398370265  0.46027667671021466  0.13795621100139188  1.0000
  C   C30       1.0  0.02068687114882617  0.4701046826001549  0.017638723634874065  1.0000
  C   C31       1.0  0.9810208098810367  0.46020843724201366  0.9027257034572131  1.0000
  C   C32       1.0  0.9025852686483491  0.44352549889184933  0.9067428537053464  1.0000
  C   C33       1.0  0.863869775295313  0.4357102824171226  0.027851734818368445  1.0000
  C   C34       1.0  0.10363988118262446  0.4862479720006081  0.011248288240660154  1.0000
  O   O2        1.0  0.1404868370003194  0.4335995630598344  0.923699551267017  1.0000
  C   C35       1.0  0.14478870078216288  0.5621327935196434  0.10409521976748759  1.0000
  C   C36       1.0  0.2180780951549539  0.5271952352422626  0.1388642852358173  1.0000
  C   C37       1.0  0.2582212306857341  0.5984380905271787  0.22519410629858028  1.0000
  O   O3        1.0  0.3308993826739397  0.5583111054213545  0.25712128297305004  1.0000
  C   C38       1.0  0.3779827395033506  0.6213289810443727  0.34331933088416555  1.0000
  C   C39       1.0  0.2246599168108654  0.7070132186708067  0.27664935223315856  1.0000
  C   C40       1.0  0.15224794872556324  0.7433053755844197  0.241328813211521  1.0000
  C   C41       1.0  0.11253837670149558  0.6718400422120363  0.15521994178291387  1.0000
  H   H18       1.0  0.7547588585205361  0.4104444896581936  0.36279291427710003  1.0000
  H   H19       1.0  0.011799129290108734  0.46411268895626767  0.2271271483479329  1.0000
  H   H20       1.0  0.011446809768476118  0.46680395664173413  0.8099193402213216  1.0000
  H   H21       1.0  0.8033705964515714  0.42293301877550915  0.031685243293599674  1.0000
  H   H22       1.0  0.8725244533772655  0.4360348367658178  0.5809100180266857  1.0000
  H   H23       1.0  0.2441146186798473  0.44351271541116666  0.09979051745365841  1.0000
  H   H24       1.0  0.43204974543933683  0.5692840695626284  0.3507773227460911  1.0000
  H   H25       1.0  0.3508538705915014  0.6188684267554656  0.4418131694253966  1.0000
  H   H26       1.0  0.3895539998154567  0.7236201702234595  0.3051052291606873  1.0000
  H   H27       1.0  0.25411166491024995  0.7641692476704582  0.34346501428951615  1.0000
  H   H28       1.0  0.12691709854562383  0.8274941209316524  0.28039869184064714  1.0000
  H   H29       1.0  0.056990456753946095  0.7032176900043969  0.1275683443718456  1.0000
  Zn  Zn1       1.0  0.8203347345024178  0.4416148911587885  0.5291788941135889  1.0000
  Zn  Zn2       1.0  0.9849678579254346  0.44561370520514143  0.5215350792259628  1.0000
  C   C42       1.0  0.9026088443657171  0.4383852642944377  0.7625636601253221  1.0000
  C   C43       1.0  0.9026955461677314  0.44884501440348745  0.2881503569493693  1.0000
  C   C44       1.0  0.9027012257845254  0.6808191273906616  0.5201432881067625  1.0000
  C   C45       1.0  0.9026031082344946  0.20640958955037436  0.530570801071899  1.0000
  O   O4        1.0  0.9651632378018126  0.45208228773665815  0.3336373656638876  1.0000
  O   O5        1.0  0.9650938839233283  0.4381820186148999  0.7112747990738397  1.0000
  O   O6        1.0  0.9651676406154406  0.6339504082869449  0.5155186723892715  1.0000
  O   O7        1.0  0.9650894249512711  0.2563139060135209  0.5293933975762857  1.0000
  O   O8        1.0  0.8402131112953775  0.6309146889872257  0.5213205783648924  1.0000
  O   O9        1.0  0.8401393549364901  0.4351478597088858  0.7170766355471172  1.0000
  O   O10       1.0  0.8402087091405576  0.4490480839389044  0.3394376406724773  1.0000
  O   O11       1.0  0.8401348962672418  0.2532796929036758  0.5351937699586724  1.0000
