data_image0
_chemical_formula_structural       NC9NC5H8C7OC3NC3H11C7OC4NC3H9Zn2C4O8
_chemical_formula_sum              "N4 C45 H28 O10 Zn2"
_cell_length_a       17.807436237873137
_cell_length_b       10.298746005989749
_cell_length_c       10.299375074045738
_cell_angle_alpha    85.54279281073397
_cell_angle_beta     89.38493469783968
_cell_angle_gamma    88.3993582553778

_space_group_name_H-M_alt    "P 1"
_space_group_IT_number       1

loop_
  _space_group_symop_operation_xyz
  'x, y, z'

loop_
  _atom_site_type_symbol
  _atom_site_label
  _atom_site_symmetry_multiplicity
  _atom_site_fract_x
  _atom_site_fract_y
  _atom_site_fract_z
  _atom_site_occupancy
  N   N1        1.0  0.7076391716611257  0.3884108535837223  0.5571403727489637  1.0000
  C   C1        1.0  0.6470490816566071  0.3532224331303626  0.5461138431370802  1.0000
  C   C2        1.0  0.5716816691067012  0.30945191324437693  0.5323980375509485  1.0000
  C   C3        1.0  0.553590646603761  0.23807061552649822  0.4273858337303975  1.0000
  C   C4        1.0  0.48041277314939196  0.19546133957152168  0.4139860315093633  1.0000
  C   C5        1.0  0.4242771704263692  0.22385581337853977  0.5055659576524705  1.0000
  C   C6        1.0  0.3465079601239026  0.1786880218917546  0.49140752321100156  1.0000
  C   C7        1.0  0.2843375334887958  0.2604410317903061  0.5173525201129732  1.0000
  C   C8        1.0  0.2110173351760278  0.217628696179742  0.5039663877374589  1.0000
  C   C9        1.0  0.1477970470260706  0.30207313866060437  0.5302754637728944  1.0000
  N   N2        1.0  0.0969809231466981  0.36996062779993566  0.5514272340384583  1.0000
  C   C10       1.0  0.199283996126033  0.09280535940647039  0.4646098922832973  1.0000
  C   C11       1.0  0.2605970522050391  0.01103849925009448  0.4386565044561168  1.0000
  C   C12       1.0  0.3337977951587903  0.053456338187816366  0.4518400652772485  1.0000
  C   C13       1.0  0.4430596290247552  0.2957314348965905  0.6107974309733826  1.0000
  C   C14       1.0  0.5162903664592025  0.33815035967337037  0.6240415635767118  1.0000
  H   H1        1.0  0.5959883051411384  0.21561057352309554  0.3556682290709112  1.0000
  H   H2        1.0  0.4675007864263753  0.1418059485054617  0.3310583406509131  1.0000
  H   H3        1.0  0.2928422003130427  0.357902906565412  0.5462366986291267  1.0000
  H   H4        1.0  0.1428164909085465  0.05877055441357837  0.45401249103546704  1.0000
  H   H5        1.0  0.2513941989216328  0.914397241991378  0.40857190377347985  1.0000
  H   H6        1.0  0.3804337417273094  0.9877131747594424  0.4327868701482862  1.0000
  H   H7        1.0  0.4013787126362602  0.31765189680171946  0.6838095660243328  1.0000
  H   H8        1.0  0.5297308878036602  0.39302682694879865  0.7059276480963925  1.0000
  C   C15       1.0  0.9022777366712889  0.9977852110659268  0.5542671289262522  1.0000
  C   C16       1.0  0.9374295509777726  0.004673219324442313  0.4312423191084449  1.0000
  C   C17       1.0  0.9544140651403281  0.8910704601684658  0.36835758901576443  1.0000
  C   C18       1.0  0.9374301175395247  0.7694366111109131  0.4311931717961166  1.0000
  C   C19       1.0  0.902349520798766  0.7605759839424597  0.5543116319555428  1.0000
  C   C20       1.0  0.884815103389529  0.8753143953032068  0.6149155607310022  1.0000
  C   C21       1.0  0.992172565369497  0.8981221602769516  0.2389830226818812  1.0000
  O   O1        1.0  0.03804404820465712  0.8079802169258857  0.21309668710687113  1.0000
  C   C22       1.0  0.9778943545377223  0.0073753588571165984  0.1389829663924509  1.0000
  C   C23       1.0  0.9067586224934855  0.07014314461840399  0.1279188769201507  1.0000
  C   C24       1.0  0.8936006116037074  0.17247496039705723  0.03220144772393674  1.0000
  N   N3        1.0  0.8212622145740738  0.23614158206881708  0.022058416926573843  1.0000
  C   C25       1.0  0.9516248903573878  0.21164487077624483  0.9462125654395965  1.0000
  C   C26       1.0  0.022074998008436042  0.14874553203901764  0.9554305726285439  1.0000
  C   C27       1.0  0.0351745937019845  0.046841076668301396  0.05084463936428829  1.0000
  H   H9        1.0  0.8368998743285654  0.19201574034281532  0.7875709984378845  1.0000
  H   H10       1.0  0.9523724258400252  0.09849984844631643  0.38479947762944744  1.0000
  H   H11       1.0  0.950982408323395  0.6816213336027287  0.3832945965054617  1.0000
  H   H12       1.0  0.8577231042884637  0.8692527316889002  0.7097472513830245  1.0000
  H   H13       1.0  0.8363473750264645  0.5365023098996257  0.7871361175478502  1.0000
  H   H14       1.0  0.8612591220142535  0.03887035286373086  0.19255159618838324  1.0000
  H   H15       1.0  0.7776080986786861  0.20773177919007213  0.08565255710774378  1.0000
  H   H16       1.0  0.8108449374027409  0.31227825617008387  0.9509701560789172  1.0000
  H   H17       1.0  0.9421622361437074  0.2904737608598571  0.8718614291522662  1.0000
  H   H18       1.0  0.06665417721586775  0.17902723478096094  0.8884789587413158  1.0000
  H   H19       1.0  0.09027256586973453  0.9995856179636134  0.056563950096731874  1.0000
  C   C28       1.0  0.9023391848409787  0.37932174355567394  0.17290226010882082  1.0000
  C   C29       1.0  0.9601753454613268  0.46969981167803687  0.16361564698890696  1.0000
  C   C30       1.0  0.9887627646441305  0.5163919786763584  0.041682932369680126  1.0000
  C   C31       1.0  0.9600536881335489  0.46946782100280604  0.9283921017432375  1.0000
  C   C32       1.0  0.9022880588321897  0.3790394578650387  0.9356765493771095  1.0000
  C   C33       1.0  0.873630383934948  0.3347473812093851  0.058406712146396256  1.0000
  C   C34       1.0  0.050373102672188974  0.6107994798429381  0.03180714462802592  1.0000
  O   O2        1.0  0.09838148998638951  0.6038390342399915  0.9414674665310341  1.0000
  C   C35       1.0  0.057509765704271354  0.7131154782462497  0.12433505513705057  1.0000
  C   C36       1.0  0.12895483449340306  0.756294789566484  0.1550460286227373  1.0000
  C   C37       1.0  0.13624396037497144  0.8539694864104839  0.24116165910753984  1.0000
  C   C38       1.0  0.2096126344322431  0.8968482956001702  0.27287550259881743  1.0000
  N   N4        1.0  0.26859278220891225  0.9313124099525665  0.29836609821487503  1.0000
  C   C39       1.0  0.07209508076335713  0.909864935790268  0.2962995506573538  1.0000
  C   C40       1.0  0.0009004706810076257  0.8686855763300483  0.2650840689361882  1.0000
  C   C41       1.0  0.993461958555137  0.7712879660369929  0.1792462054159769  1.0000
  H   H20       1.0  0.793985486543106  0.20726654808365597  0.39785039612371786  1.0000
  H   H21       1.0  0.9836328120301356  0.502792413182588  0.25145673186667694  1.0000
  H   H22       1.0  0.9824188072326056  0.5046469066896588  0.8343209263175857  1.0000
  H   H23       1.0  0.8290431796656413  0.2650718132595995  0.0647621897963373  1.0000
  H   H24       1.0  0.8805302555796316  0.34348067342633803  0.6110735180472826  1.0000
  H   H25       1.0  0.17889487120313574  0.7132046523309066  0.11293012605218711  1.0000
  H   H26       1.0  0.07711377589438495  0.9855115311061335  0.36290963399122345  1.0000
  H   H27       1.0  0.9513348104909133  0.9127367533750719  0.3070457178044588  1.0000
  H   H28       1.0  0.9376579980894447  0.7425362132742461  0.15475986690380727  1.0000
  Zn  Zn1       1.0  0.819994788872801  0.3830830486174688  0.5554991952764805  1.0000
  Zn  Zn2       1.0  0.9846252860260655  0.37527784176732215  0.5530790880148935  1.0000
  C   C42       1.0  0.9022955784782868  0.3739187677513718  0.7914955700450756  1.0000
  C   C43       1.0  0.902326294326191  0.38444367610834984  0.3170828143869795  1.0000
  C   C44       1.0  0.9023324404987397  0.616394372414242  0.5491278691870278  1.0000
  C   C45       1.0  0.902289375977348  0.14196651365196034  0.5594505852217093  1.0000
  O   O3        1.0  0.9647983833089786  0.38319494193131454  0.3645527070843968  1.0000
  O   O4        1.0  0.9647742274772517  0.3692425508644075  0.742188498012514  1.0000
  O   O5        1.0  0.9648031517225117  0.5650447075820637  0.5464748772376549  1.0000
  O   O6        1.0  0.9647694028938801  0.18739279720407565  0.5602662313062987  1.0000
  O   O7        1.0  0.839850615824678  0.5709680958456655  0.5483120528041077  1.0000
  O   O8        1.0  0.8398216917275  0.3751674995864782  0.7440256044213172  1.0000
  O   O9        1.0  0.8398458477095427  0.38911984596924243  0.36638825201457226  1.0000
  O   O10       1.0  0.8398168672839743  0.1933176919165358  0.5621018736084646  1.0000
