data_image0
_chemical_formula_structural       NC9NC5H8C7OC6H10C7OC4NC3H9Zn2C4O8
_chemical_formula_sum              "N3 C45 H27 O10 Zn2"
_cell_length_a       17.807436237873137
_cell_length_b       10.299379429549807
_cell_length_c       10.299375074045738
_cell_angle_alpha    85.51714373298503
_cell_angle_beta     89.38493469783968
_cell_angle_gamma    88.38769231292811

_space_group_name_H-M_alt    "P 1"
_space_group_IT_number       1

loop_
  _space_group_symop_operation_xyz
  'x, y, z'

loop_
  _atom_site_type_symbol
  _atom_site_label
  _atom_site_symmetry_multiplicity
  _atom_site_fract_x
  _atom_site_fract_y
  _atom_site_fract_z
  _atom_site_occupancy
  N   N1        1.0  0.7074786847930827  0.38838164465810654  0.5565193515647997  1.0000
  C   C1        1.0  0.6468926622296788  0.35319396448702967  0.5455085613534565  1.0000
  C   C2        1.0  0.5715303091285887  0.3094243654306783  0.5318123338482803  1.0000
  C   C3        1.0  0.5534475376133717  0.2380445694087927  0.42683205811149594  1.0000
  C   C4        1.0  0.4802745893792499  0.1954361898535879  0.41345131455954487  1.0000
  C   C5        1.0  0.4241357045296439  0.22383006630711266  0.5050185401610929  1.0000
  C   C6        1.0  0.3463717151870779  0.17866322504529775  0.4908803087850804  1.0000
  C   C7        1.0  0.2841918386946195  0.26041451505122604  0.51678873844841  1.0000
  C   C8        1.0  0.2108765890738313  0.21760308011233476  0.5034217555683704  1.0000
  C   C9        1.0  0.1476465399629436  0.3020457460791106  0.529693060516429  1.0000
  N   N2        1.0  0.0968225689463327  0.3699318070240314  0.5508144654410807  1.0000
  C   C10       1.0  0.1991576783944631  0.09278236933089379  0.46412109224503206  1.0000
  C   C11       1.0  0.2604801859317765  0.01101722935851801  0.4382042778515647  1.0000
  C   C12       1.0  0.3336760257935483  0.05343417592385635  0.45136886563132417  1.0000
  C   C13       1.0  0.4429098550012558  0.29570417572975094  0.6102178642925393  1.0000
  C   C14       1.0  0.5161356892182111  0.338122208111304  0.6234430233688126  1.0000
  H   H1        1.0  0.5958477923144047  0.21558499991228142  0.35512449958629744  1.0000
  H   H2        1.0  0.467368804700566  0.14178192757179375  0.3305476231782025  1.0000
  H   H3        1.0  0.2926852398686477  0.35787433945583547  0.5456293233202709  1.0000
  H   H4        1.0  0.1426941072713  0.05874828035090607  0.4535389143980024  1.0000
  H   H5        1.0  0.2512885034431398  0.9143780052064194  0.4081629037598653  1.0000
  H   H6        1.0  0.38031957163599034  0.9876923955782823  0.4323450767095358  1.0000
  H   H7        1.0  0.4012264048193465  0.31762417647949537  0.6832201945575542  1.0000
  H   H8        1.0  0.5295698673737349  0.3929975209138712  0.7053045622371814  1.0000
  C   C15       1.0  0.9021624023499745  0.9977642199926179  0.5538208303744094  1.0000
  C   C16       1.0  0.9476954329932563  0.985676517967908  0.6649038717848823  1.0000
  C   C17       1.0  0.9699567206982789  0.8623736284144594  0.7217924711853507  1.0000
  C   C18       1.0  0.9476040080490288  0.7504588802481681  0.6646289176402773  1.0000
  C   C19       1.0  0.9021460309108849  0.7605389334071743  0.5535241505142783  1.0000
  C   C20       1.0  0.879525723977301  0.884660549801227  0.4989641008931971  1.0000
  C   C21       1.0  0.018688714536261086  0.8494961199840608  0.8382807268689432  1.0000
  O   O1        1.0  0.0663488022282499  0.7564466415708184  0.8499390943181766  1.0000
  C   C22       1.0  0.013349204558829486  0.9420765926870229  0.9415479587850271  1.0000
  C   C23       1.0  0.07760499356265416  0.9684699412160082  0.012172039906047094  1.0000
  C   C24       1.0  0.07294522468122566  0.05441383804031008  0.11073662764485614  1.0000
  C   C25       1.0  0.004125105477988944  0.11395796818787352  0.14050441910151446  1.0000
  C   C26       1.0  0.9397539883189765  0.08726038484492826  0.07212621875764913  1.0000
  C   C27       1.0  0.9441120739527299  0.0014104692060794566  0.973478380892798  1.0000
  H   H9        1.0  0.8171869152678851  0.22794029049032272  0.34302582940682624  1.0000
  H   H10       1.0  0.9665902792161734  0.07235361538026597  0.7064657282046767  1.0000
  H   H11       1.0  0.9651879083509347  0.6553081242092105  0.7078102480482675  1.0000
  H   H12       1.0  0.8444235424705101  0.8931751477417585  0.41332683727481867  1.0000
  H   H13       1.0  0.8852060409723218  0.43697917508927075  0.510202993180431  1.0000
  H   H14       1.0  0.13150097012641382  0.9234786301019323  0.990334139238984  1.0000
  H   H15       1.0  0.12274139965664843  0.07480426902542026  0.1641052631355926  1.0000
  H   H16       1.0  0.0006206173602962828  0.1803661567563002  0.21689988788927583  1.0000
  H   H17       1.0  0.8863412934395835  0.1326667983402483  0.09595694539834942  1.0000
  H   H18       1.0  0.8932781725683522  0.9803831500497896  0.9232848253630714  1.0000
  C   C28       1.0  0.9021797485861588  0.3792927258437311  0.17228530438543777  1.0000
  C   C29       1.0  0.9600054623758333  0.46966889262236533  0.1629582661314628  1.0000
  C   C30       1.0  0.9885874843956686  0.5163600773264119  0.04100466661007163  1.0000
  C   C31       1.0  0.959883831863934  0.4694369068276767  0.9277348246527177  1.0000
  C   C32       1.0  0.9021286552068656  0.37901044609172807  0.9350597199170685  1.0000
  C   C33       1.0  0.8734761000453586  0.33471930123804716  0.05780969405402181  1.0000
  C   C34       1.0  0.0501869098295602  0.6107655923793913  0.031086651412461697  1.0000
  O   O2        1.0  0.09819610170396165  0.6038052932079836  0.9407500866476366  1.0000
  C   C35       1.0  0.057311746121674556  0.7130794382927688  0.12356879708010426  1.0000
  C   C36       1.0  0.1287518237999834  0.7562578412210179  0.15426045692604373  1.0000
  C   C37       1.0  0.13602965943115986  0.853930483217241  0.24033239857353972  1.0000
  C   C38       1.0  0.20939337711274875  0.8968083903368054  0.2720270628364285  1.0000
  N   N3        1.0  0.26836954117108425  0.9312717796446301  0.2975022430262444  1.0000
  C   C39       1.0  0.0718743188461346  0.9098247566871578  0.2954452886923482  1.0000
  C   C40       1.0  0.0006844686995131077  0.8686462635446024  0.2642482260540564  1.0000
  C   C41       1.0  0.9932572147955087  0.7712507022700681  0.178453927433329  1.0000
  H   H19       1.0  0.7938459382050221  0.20724115001167287  0.39731039883159247  1.0000
  H   H20       1.0  0.9834591037599301  0.502760797935776  0.25078454904588  1.0000
  H   H21       1.0  0.9822448846008847  0.5046152524286294  0.8336479140018658  1.0000
  H   H22       1.0  0.8288969495979093  0.26504519909967916  0.06419633683322057  1.0000
  H   H23       1.0  0.8803749622059173  0.3434524097269045  0.610472593647593  1.0000
  H   H24       1.0  0.1786968413128769  0.7131686105014114  0.1121638281086359  1.0000
  H   H25       1.0  0.07688426996228448  0.9854697605751184  0.36202153612088783  1.0000
  H   H26       1.0  0.9511137166193494  0.9126965138556185  0.3061901713064543  1.0000
  H   H27       1.0  0.9374565777543917  0.7424995543771307  0.1539804492697383  1.0000
  Zn  Zn1       1.0  0.8198349178474894  0.3830539517764415  0.5548805571619537  1.0000
  Zn  Zn2       1.0  0.9844663172071854  0.3752489091296396  0.5524639410851182  1.0000
  C   C42       1.0  0.9021367667552205  0.3738898637054362  0.7908810310144336  1.0000
  C   C43       1.0  0.9021662660254997  0.384414550642894  0.31646356767846684  1.0000
  C   C44       1.0  0.9021456009406351  0.6163603672472071  0.5484048734364244  1.0000
  C   C45       1.0  0.9021573756917601  0.14194248934037668  0.5589397959299425  1.0000
  O   O3        1.0  0.964638499349882  0.3831658427363127  0.36393401892119903  1.0000
  O   O4        1.0  0.9646159562796358  0.3692137451951669  0.7415760506031965  1.0000
  O   O5        1.0  0.9646222476890849  0.5650117826921939  0.5457748496377093  1.0000
  O   O6        1.0  0.9646321517692087  0.18736781722945195  0.5597351233283656  1.0000
  O   O7        1.0  0.8396690271048499  0.570935046341523  0.5476093757365468  1.0000
  O   O8        1.0  0.8396627356631091  0.3751385692701379  0.7434105068464081  1.0000
  O   O9        1.0  0.8396852788888363  0.38909062212808054  0.3657669137057693  1.0000
  O   O10       1.0  0.839678931298771  0.19329258729594834  0.5615681154890972  1.0000
