data_image0
_chemical_formula_structural       NC12NC2H8C7OC3OC4H12C7OC3NC3H11Zn2C4O8
_chemical_formula_sum              "N3 C45 H31 O11 Zn2"
_cell_length_a       17.80743265337812
_cell_length_b       10.299371110280156
_cell_length_c       10.298749378158432
_cell_angle_alpha    85.57454226300092
_cell_angle_beta     91.54305523849354
_cell_angle_gamma    89.44795274300792

_space_group_name_H-M_alt    "P 1"
_space_group_IT_number       1

loop_
  _space_group_symop_operation_xyz
  'x, y, z'

loop_
  _atom_site_type_symbol
  _atom_site_label
  _atom_site_symmetry_multiplicity
  _atom_site_fract_x
  _atom_site_fract_y
  _atom_site_fract_z
  _atom_site_occupancy
  N   N1        1.0  0.7074714359762858  0.4067563694357279  0.6017157078359954  1.0000
  C   C1        1.0  0.6566488039719182  0.4363185658404831  0.5330221723669009  1.0000
  C   C2        1.0  0.5934204355383019  0.4730917921429776  0.44757606213409296  1.0000
  C   C3        1.0  0.6051418589379614  0.5271187343047918  0.32096573967976383  1.0000
  C   C4        1.0  0.543820880069209  0.5623882500555297  0.23791526682954856  1.0000
  C   C5        1.0  0.47062414492703664  0.5438943206655253  0.2808152571860181  1.0000
  C   C6        1.0  0.45792597842804755  0.4897485527997354  0.40789371532323804  1.0000
  C   C7        1.0  0.5201042722019287  0.4544822917474274  0.4909276764022108  1.0000
  C   C8        1.0  0.3801611698147666  0.47014035577513713  0.45365382280567546  1.0000
  C   C9        1.0  0.3613915705294934  0.4973209170339068  0.5807169469539859  1.0000
  C   C10       1.0  0.2881648989085068  0.4788685592518873  0.623657517636057  1.0000
  C   C11       1.0  0.2327649084705359  0.4329813285120587  0.5403729058802924  1.0000
  C   C12       1.0  0.15740170101896092  0.4139760778709767  0.5847143148850407  1.0000
  N   N2        1.0  0.0968150191423928  0.39869713455211775  0.6203617573219722  1.0000
  C   C13       1.0  0.2508430475132951  0.40563182894581495  0.41385273249048926  1.0000
  C   C14       1.0  0.3240168400462656  0.42409898404775537  0.3706562611278672  1.0000
  H   H1        1.0  0.6616059675155483  0.5419441488392911  0.28653136134280244  1.0000
  H   H2        1.0  0.5530145057952087  0.6044899910295729  0.14014362955615867  1.0000
  H   H3        1.0  0.42398198969574824  0.57353298331231  0.21522992251460482  1.0000
  H   H4        1.0  0.5116088407542502  0.4109952417670144  0.5885743787766795  1.0000
  H   H5        1.0  0.40307936763176877  0.5344973454029243  0.6463077615742212  1.0000
  H   H6        1.0  0.27473426523315936  0.5007097163991878  0.7216811772970122  1.0000
  H   H7        1.0  0.2084385744817925  0.3697226693061306  0.3486753419668589  1.0000
  H   H8        1.0  0.33691891493424964  0.4007222589277688  0.27293542701458207  1.0000
  C   C15       1.0  0.9020961635847361  0.021356347519797314  0.6109216471426095  1.0000
  C   C16       1.0  0.8934279324268596  0.030835873670945535  0.4745119153433359  1.0000
  C   C17       1.0  0.8882073231399862  0.9184477152371089  0.4058381821804755  1.0000
  C   C18       1.0  0.8934652504774254  0.7955671913848986  0.4748248102370942  1.0000
  C   C19       1.0  0.9021974897539079  0.7840870486390286  0.6111673688179404  1.0000
  C   C20       1.0  0.9062657286100287  0.8975839460485862  0.6784551180097713  1.0000
  C   C21       1.0  0.8798377342359641  0.928313199556998  0.26168029516877955  1.0000
  O   O1        1.0  0.9106279062434152  0.8426431084918029  0.19912745056645798  1.0000
  C   C22       1.0  0.8365298885893495  0.035285440940951984  0.1884904414027997  1.0000
  C   C23       1.0  0.8575174607751579  0.08002299785640088  0.06234412090143393  1.0000
  C   C24       1.0  0.8168759782871419  0.1798840606752945  0.991012121195904  1.0000
  O   O2        1.0  0.8408501877236895  0.2212070545998932  0.8660536169020938  1.0000
  C   C25       1.0  0.8050323378865631  0.3214412270769458  0.7828975940525806  1.0000
  C   C26       1.0  0.7538608237988063  0.23504173945759432  0.04648644325724782  1.0000
  C   C27       1.0  0.7321018216177517  0.19003045524966788  0.17107865441359005  1.0000
  C   C28       1.0  0.7728765564401603  0.09044800568312605  0.2416648055643158  1.0000
  H   H9        1.0  0.9196004323261788  0.21078323285008427  0.8681708083765383  1.0000
  H   H10       1.0  0.8915629448293015  0.12581391746524972  0.4213891799345111  1.0000
  H   H11       1.0  0.8900063764911669  0.7087834157826919  0.421933031965146  1.0000
  H   H12       1.0  0.9129487832300344  0.8894721147360043  0.7836170493308627  1.0000
  H   H13       1.0  0.906176906393611  0.45221667349438727  0.6634484492373649  1.0000
  H   H14       1.0  0.9060873292604477  0.038125876918575274  0.01929416441700349  1.0000
  H   H15       1.0  0.8356701125074142  0.33390707047199175  0.6904874239168359  1.0000
  H   H16       1.0  0.8061433799070802  0.4148704849470619  0.829973145384856  1.0000
  H   H17       1.0  0.7461552255239244  0.2944284904867882  0.760312318083264  1.0000
  H   H18       1.0  0.7212240409688525  0.31222134066458973  0.9940314169279834  1.0000
  H   H19       1.0  0.6832479091620656  0.23209497582848404  0.2128931902841973  1.0000
  H   H20       1.0  0.7541442831177618  0.055678398476746604  0.33715310709966095  1.0000
  C   C29       1.0  0.9021121776310913  0.4027504142946814  0.22964179189718115  1.0000
  C   C30       1.0  0.9431639588375543  0.5187660304110087  0.22162501873614127  1.0000
  C   C31       1.0  0.963168537689143  0.578248055834188  0.10029664280305339  1.0000
  C   C32       1.0  0.9431669510686153  0.518814830154466  0.9863811480455191  1.0000
  C   C33       1.0  0.9021814465625501  0.40269294783157283  0.9924472013033157  1.0000
  C   C34       1.0  0.8817415928721928  0.3455817739210145  0.1145041932128803  1.0000
  C   C35       1.0  0.007128050509767503  0.7001067135466437  0.09176053633591352  1.0000
  O   O3        1.0  0.05407272708114608  0.7174778781543776  0.0026676373358949235  1.0000
  C   C36       1.0  0.9978329729586005  0.8022504624768678  0.18423726753836567  1.0000
  C   C37       1.0  0.9275527820829642  0.8262793531700803  0.23758288299833952  1.0000
  C   C38       1.0  0.9191622270957954  0.9239555708958245  0.32391211567320344  1.0000
  N   N3        1.0  0.8476392855956035  0.9472878056186904  0.3781658720783645  1.0000
  C   C39       1.0  0.9811640227548268  0.9989236726231594  0.3563031900108602  1.0000
  C   C40       1.0  0.05085246389736442  0.976857692229417  0.3024705169871251  1.0000
  C   C41       1.0  0.05919976614979916  0.8794940419528701  0.21651611595508724  1.0000
  H   H21       1.0  0.825540035816862  0.182503719782122  0.4522773193487697  1.0000
  H   H22       1.0  0.9603267718247553  0.5622568053973211  0.31000695745591145  1.0000
  H   H23       1.0  0.9590168759724039  0.5640089443589265  0.8927482773366946  1.0000
  H   H24       1.0  0.8501016537196233  0.25615220182500553  0.11993205905235982  1.0000
  H   H25       1.0  0.8250113900300846  0.18303762141591373  0.7966376629421461  1.0000
  H   H26       1.0  0.8790718466516312  0.7702753625158154  0.2112000887932599  1.0000
  H   H27       1.0  0.8010467279075602  0.8919799070486008  0.3546887394702263  1.0000
  H   H28       1.0  0.8407655626066561  0.019948848204966563  0.44234730652602483  1.0000
  H   H29       1.0  0.9754013536493936  0.07465769175606773  0.42278415348945764  1.0000
  H   H30       1.0  0.09853115092860087  0.03533811788615626  0.32740902356555757  1.0000
  H   H31       1.0  0.11377532982753857  0.863719584847316  0.17612470130559066  1.0000
  Zn  Zn1       1.0  0.8198275873519686  0.40442718048049997  0.60710404141965  1.0000
  Zn  Zn2       1.0  0.9844588648279052  0.40101572921089335  0.6149840143154304  1.0000
  C   C42       1.0  0.9021660062132247  0.39753016583532363  0.8482589015956339  1.0000
  C   C43       1.0  0.9021222439643288  0.4079143452192202  0.37382936819411183  1.0000
  C   C44       1.0  0.9021739935523718  0.6399151713277016  0.6059450918145473  1.0000
  C   C45       1.0  0.9021142002470578  0.16552778057732098  0.6161432440284476  1.0000
  O   O4        1.0  0.9646023333841054  0.40834711387015954  0.42521044279111386  1.0000
  O   O5        1.0  0.9646372469251218  0.394507204908362  0.802858169901602  1.0000
  O   O6        1.0  0.9646428547092116  0.5902361795707334  0.6071880142152455  1.0000
  O   O7        1.0  0.9645966694149003  0.21261814966947568  0.6208804984082661  1.0000
  O   O8        1.0  0.8396897265843978  0.5928247611874928  0.601207554630935  1.0000
  O   O9        1.0  0.839684118997856  0.3970973468402177  0.7968776415681631  1.0000
  O   O10       1.0  0.8396492053589497  0.4109372106624376  0.4192283529064509  1.0000
  O   O11       1.0  0.8396435413942842  0.21520823716564141  0.6148985058969278  1.0000
