data_image0
_chemical_formula_structural       NC10NC3NH7C7OC6OCH12C7OC4NC3H9Zn2C4O8
_chemical_formula_sum              "N4 C45 H28 O11 Zn2"
_cell_length_a       19.210446455230148
_cell_length_b       10.299359160628079
_cell_length_c       10.299375074045738
_cell_angle_alpha    85.54493941547133
_cell_angle_beta     89.9839463016943
_cell_angle_gamma    89.96984927250973

_space_group_name_H-M_alt    "P 1"
_space_group_IT_number       1

loop_
  _space_group_symop_operation_xyz
  'x, y, z'

loop_
  _atom_site_type_symbol
  _atom_site_label
  _atom_site_symmetry_multiplicity
  _atom_site_fract_x
  _atom_site_fract_y
  _atom_site_fract_z
  _atom_site_occupancy
  N   N1        1.0  0.6558589334618015  0.4207669125456015  0.5674635949489772  1.0000
  C   C1        1.0  0.5956306646950866  0.42297435364191016  0.5676950723938221  1.0000
  C   C2        1.0  0.5208265729999622  0.42571117646255763  0.5679818443655325  1.0000
  C   C3        1.0  0.4852302724043727  0.5419365947060235  0.5831110868730573  1.0000
  C   C4        1.0  0.4125648146975948  0.5420881540442684  0.5830585092213891  1.0000
  C   C5        1.0  0.3756599074028737  0.4264201145307682  0.5680684337681801  1.0000
  C   C6        1.0  0.2983376089242682  0.4250636878518743  0.5679176391177165  1.0000
  C   C7        1.0  0.2605994413046104  0.5286603276160153  0.5045681939029554  1.0000
  C   C8        1.0  0.1878209090675453  0.527258128885288  0.5044589121197953  1.0000
  C   C9        1.0  0.1517791688448201  0.4225168225478295  0.5676481138689076  1.0000
  C   C10       1.0  0.0768494860871525  0.42121478485625574  0.5675110909561567  1.0000
  N   N2        1.0  0.0166115029488601  0.42016790232920953  0.5674009594052596  1.0000
  C   C11       1.0  0.1887936962630276  0.3190458862727721  0.6309725677640123  1.0000
  C   C12       1.0  0.2615740398871628  0.32017379475727203  0.6311320578109827  1.0000
  C   C13       1.0  0.4138662934527372  0.3120148518605219  0.5532276313163669  1.0000
  N   N3        1.0  0.4846365495798244  0.31445978006914466  0.55339355481243  1.0000
  H   H1        1.0  0.5133422817593584  0.6313661019172914  0.5951729577873122  1.0000
  H   H2        1.0  0.3853070257910806  0.6320989732150526  0.5965152458560075  1.0000
  H   H3        1.0  0.287339061666702  0.6099347201673073  0.4535871961036049  1.0000
  H   H4        1.0  0.1596866796763116  0.6077042777143442  0.45480824345544213  1.0000
  H   H5        1.0  0.1614144740092141  0.2376363727325288  0.6805236082391215  1.0000
  H   H6        1.0  0.2890633569660487  0.23984625755702482  0.6822205299053925  1.0000
  H   H7        1.0  0.3875897794316352  0.22114112353325077  0.5397245208771231  1.0000
  C   C14       1.0  0.836156631808459  0.03908927516102145  0.5674008027257691  1.0000
  C   C15       1.0  0.7785864961249931  0.04449741597347612  0.4830103703707702  1.0000
  C   C16       1.0  0.7500487676995313  0.9302401141473063  0.43935287616591845  1.0000
  C   C17       1.0  0.7787522894767637  0.8092355320253989  0.48326545834589996  1.0000
  C   C18       1.0  0.83632045892033  0.801835522621017  0.567475023754408  1.0000
  C   C19       1.0  0.8647872428716371  0.9173493585084148  0.6088469123506588  1.0000
  C   C20       1.0  0.6887768491935632  0.9380874312331307  0.35142640551686233  1.0000
  O   O1        1.0  0.6445404247454054  0.02702922717162526  0.36300109278019255  1.0000
  C   C21       1.0  0.6776868437149153  0.8451057907131172  0.2503766789814419  1.0000
  C   C22       1.0  0.7343095370430206  0.7916869469190935  0.18630904577406282  1.0000
  C   C23       1.0  0.7231271480023601  0.7053548888415195  0.090225231119204  1.0000
  C   C24       1.0  0.6555055730183394  0.671565869548762  0.05547284009919551  1.0000
  C   C25       1.0  0.5986486588413548  0.7260203697016498  0.11822870109793038  1.0000
  C   C26       1.0  0.6097673927935009  0.8124114054212594  0.21435895020198292  1.0000
  O   O2        1.0  0.6470806955930359  0.5843891490399976  0.9585720196608216  1.0000
  C   C27       1.0  0.58148528531725  0.5416704354798078  0.9137134838977596  1.0000
  H   H8        1.0  0.9446094600692876  0.23612215486393162  0.7270638175188582  1.0000
  H   H9        1.0  0.7562017552908691  0.13787499907165013  0.4500281162365718  1.0000
  H   H10       1.0  0.75564582827968  0.7206481450680444  0.4528167584570062  1.0000
  H   H11       1.0  0.9091949478890946  0.9123731550683675  0.6738106019683425  1.0000
  H   H12       1.0  0.8582259788962451  0.4714914848738027  0.6001906845908627  1.0000
  H   H13       1.0  0.7872299790062702  0.8176784092999358  0.20943192897321872  1.0000
  H   H14       1.0  0.7673073102840976  0.6648519128275096  0.04203431825629367  1.0000
  H   H15       1.0  0.545699229792242  0.7023065626733085  0.0934611396993541  1.0000
  H   H16       1.0  0.5651982579758644  0.8528696275989274  0.2614991261855588  1.0000
  H   H17       1.0  0.5901794035765947  0.4732892558236785  0.8372340154123079  1.0000
  H   H18       1.0  0.550900854132896  0.6260854078030672  0.8712070194896655  1.0000
  H   H19       1.0  0.5522596180802156  0.4901190037381445  0.9952576321543969  1.0000
  C   C28       1.0  0.8362622340799394  0.4206047398828743  0.1860511416285544  1.0000
  C   C29       1.0  0.8898633902345788  0.5136287517953757  0.1776073906074742  1.0000
  C   C30       1.0  0.9163577772043694  0.5616286368421168  0.05609136401064996  1.0000
  C   C31       1.0  0.8897506358206813  0.513391198046683  0.942382070845003  1.0000
  C   C32       1.0  0.8362148259146451  0.4203201279011035  0.9488246782295122  1.0000
  C   C33       1.0  0.80965564778662  0.3747169619482835  0.071137223295066  1.0000
  C   C34       1.0  0.973456511476929  0.6588548634235136  0.04711337037986141  1.0000
  O   O3        1.0  0.017939067931878494  0.6540958834556427  0.9574702555155614  1.0000
  C   C35       1.0  0.980082226482972  0.7614916496446311  0.13974870602423395  1.0000
  C   C36       1.0  0.046287057053308045  0.8079437840916242  0.1714982990266063  1.0000
  C   C37       1.0  0.05305344854688365  0.9059465492388978  0.25772339344135387  1.0000
  C   C38       1.0  0.12104060825577356  0.9521863914719448  0.29050376560959945  1.0000
  N   N4        1.0  0.17569462409430603  0.9893523980682308  0.3168517299095013  1.0000
  C   C39       1.0  0.9936217327355633  0.9588974799776968  0.31193228445810917  1.0000
  C   C40       1.0  0.927649226419604  0.9144566549144764  0.27968189357909945  1.0000
  C   C41       1.0  0.9207444524831963  0.8167241100939153  0.1937324082382752  1.0000
  H   H20       1.0  0.735842295746351  0.24359264741847952  0.4094201070863075  1.0000
  H   H21       1.0  0.9116027489269343  0.5477947309080538  0.26579019382255975  1.0000
  H   H22       1.0  0.9104781171355568  0.5495934501110429  0.8486368370157606  1.0000
  H   H23       1.0  0.7683333041039466  0.30300157615595524  0.07684291945029575  1.0000
  H   H24       1.0  0.8160500207697429  0.38376604432987915  0.6239045060265314  1.0000
  H   H25       1.0  0.09255482605286525  0.7671459341857112  0.13010564124177249  1.0000
  H   H26       1.0  0.9982815866798269  0.03476943066551108  0.3786180507123964  1.0000
  H   H27       1.0  0.881728468494217  0.9562326484241279  0.3209257676612478  1.0000
  H   H28       1.0  0.8690341458432242  0.7854157254377025  0.16843501659005944  1.0000
  Zn  Zn1       1.0  0.7599643302818819  0.42059058420073825  0.5674530187651032  1.0000
  Zn  Zn2       1.0  0.9125060872551096  0.4203336439015821  0.5674221708345668  1.0000
  C   C42       1.0  0.8362211402866214  0.4152001031046759  0.8046436159064612  1.0000
  C   C43       1.0  0.8362509433456378  0.4257257608035041  0.33023170098812926  1.0000
  C   C44       1.0  0.8362862240763445  0.6576622183028649  0.5622855481352333  1.0000
  C   C45       1.0  0.8361858071646506  0.1832620853268423  0.5725898378600018  1.0000
  O   O4        1.0  0.8941359546484655  0.427341248822672  0.378608306634975  1.0000
  O   O5        1.0  0.894111792763279  0.4133886237369613  0.7562432234353076  1.0000
  O   O6        1.0  0.8941635682939467  0.6091798489219684  0.5605373692756466  1.0000
  O   O7        1.0  0.8940841270736739  0.23155003305212585  0.5743140634268435  1.0000
  O   O8        1.0  0.7783862384083032  0.6093741951392924  0.560561126176522  1.0000
  O   O9        1.0  0.7783344632138847  0.4135845303218555  0.756266911239234  1.0000
  O   O10       1.0  0.7783586252326508  0.4275371107331116  0.3786304329607786  1.0000
  O   O11       1.0  0.7783067976469685  0.23174588563720167  0.5743362871241353  1.0000
