data_image0
_chemical_formula_structural       NC10NC3NH7C7OC3NC3H11C7OC3FC3H9Zn2C4O8
_chemical_formula_sum              "N4 C43 H27 O10 F1 Zn2"
_cell_length_a       19.210446455230148
_cell_length_b       10.298746005989749
_cell_length_c       10.29938172300155
_cell_angle_alpha    85.57926667056456
_cell_angle_beta     89.97418890370308
_cell_angle_gamma    89.95621662588981

_space_group_name_H-M_alt    "P 1"
_space_group_IT_number       1

loop_
  _space_group_symop_operation_xyz
  'x, y, z'

loop_
  _atom_site_type_symbol
  _atom_site_label
  _atom_site_symmetry_multiplicity
  _atom_site_fract_x
  _atom_site_fract_y
  _atom_site_fract_z
  _atom_site_occupancy
  N   N1        1.0  0.6558088575044879  0.4199409320250429  0.567481926313224  1.0000
  C   C1        1.0  0.5955802859712908  0.42214865910140964  0.5677133093543114  1.0000
  C   C2        1.0  0.5207758189210883  0.4248858363459489  0.5679999642935316  1.0000
  C   C3        1.0  0.4851633078615339  0.5411281905585985  0.5831240891788909  1.0000
  C   C4        1.0  0.4124978356359564  0.5412797258028084  0.5830715084698335  1.0000
  C   C5        1.0  0.3756090549666438  0.42559487408158314  0.5680865227650782  1.0000
  C   C6        1.0  0.2982869433151262  0.42423826620919924  0.5679357865516774  1.0000
  C   C7        1.0  0.2605413610503409  0.527800930888412  0.5045856223011378  1.0000
  C   C8        1.0  0.1877630176782866  0.5263985746120425  0.5044763985964336  1.0000
  C   C9        1.0  0.1517288527814011  0.4216910693838718  0.5676663703452669  1.0000
  C   C10       1.0  0.0767993486522975  0.42038886269795395  0.5675294031400704  1.0000
  N   N2        1.0  0.0165615091338191  0.4193418443189578  0.567419316377962  1.0000
  C   C11       1.0  0.1887507810984239  0.31825410009971566  0.6309915398093273  1.0000
  C   C12       1.0  0.2615309662484325  0.319382181029928  0.6311509795588301  1.0000
  C   C13       1.0  0.4138313928998111  0.3111729735645006  0.5532507552146808  1.0000
  N   N3        1.0  0.4846013219689599  0.3136181607493156  0.5534165786743634  1.0000
  H   H1        1.0  0.5132628055790504  0.63057099780844  0.5951820013060296  1.0000
  H   H2        1.0  0.3852273332380214  0.6313047722282623  0.5965241947479427  1.0000
  H   H3        1.0  0.2872752817573526  0.6090478505409915  0.45360412449299004  1.0000
  H   H4        1.0  0.1596230724849196  0.6068180483291239  0.4548251944706807  1.0000
  H   H5        1.0  0.1613774066516823  0.23687113775422208  0.6805431568755973  1.0000
  H   H6        1.0  0.2890258523650089  0.23908224462337424  0.682239910759354  1.0000
  H   H7        1.0  0.3875677066856996  0.2202849343631652  0.5397517298291579  1.0000
  C   C14       1.0  0.8361552471753363  0.038239368386908223  0.5674334585273035  1.0000
  C   C15       1.0  0.8687371037868058  0.046660830522001984  0.4449249310967267  1.0000
  C   C16       1.0  0.8844801911198066  0.9337968012211376  0.3822898284188372  1.0000
  C   C17       1.0  0.8687376332451211  0.811424216902259  0.44487579446431536  1.0000
  C   C18       1.0  0.8362217560725473  0.8010334616278518  0.567479001076076  1.0000
  C   C19       1.0  0.8199693540649136  0.9150064685232314  0.6278254361980902  1.0000
  C   C20       1.0  0.9194779043219545  0.94249743970403  0.25346969075255577  1.0000
  O   O1        1.0  0.9619833838360413  0.8544425804891018  0.2282503455510505  1.0000
  C   C21       1.0  0.9062573072135014  0.051031989566337366  0.15326742733362742  1.0000
  C   C22       1.0  0.8403461319070187  0.11053050153922328  0.1411715557327884  1.0000
  C   C23       1.0  0.8281630856330128  0.2121977748731907  0.04526796178964343  1.0000
  N   N4        1.0  0.7611374735000329  0.2725405580799598  0.03407564949555564  1.0000
  C   C24       1.0  0.8819344757819176  0.25397369872773146  0.9601254393304215  1.0000
  C   C25       1.0  0.9472105415610134  0.19431101277880058  0.970365371057476  1.0000
  C   C26       1.0  0.9593394898788725  0.09306822725148978  0.06596476997877021  1.0000
  H   H8        1.0  0.7755567648591093  0.22962074009646694  0.7997768843500375  1.0000
  H   H9        1.0  0.8825869654432964  0.14114306280708644  0.39870126610868417  1.0000
  H   H10       1.0  0.8812991556069187  0.724199842166734  0.39717628804206884  1.0000
  H   H11       1.0  0.7948580562595761  0.9077629597871584  0.7222592199952576  1.0000
  H   H12       1.0  0.7750448757602024  0.5740816948950078  0.799334007232164  1.0000
  H   H13       1.0  0.7981817725043955  0.07721242988556787  0.2051407451952516  1.0000
  H   H14       1.0  0.7206830859570137  0.24216943934896973  0.09703309238696312  1.0000
  H   H15       1.0  0.7514916521914078  0.34815410633230615  0.9628397662485697  1.0000
  H   H16       1.0  0.8731734775615269  0.33232115708972687  0.8856406974928368  1.0000
  H   H17       1.0  0.9885223717916831  0.2265943095113936  0.9040640470646863  1.0000
  H   H18       1.0  0.010391057938640591  0.04834315456494864  0.07248338707243684  1.0000
  C   C27       1.0  0.8362470981322484  0.4195351586629905  0.18608855356595466  1.0000
  C   C28       1.0  0.8582641696749078  0.28903306477828017  0.19493818109444194  1.0000
  C   C29       1.0  0.8701252473154326  0.22366643149590248  0.08219281325265393  1.0000
  C   C30       1.0  0.8581976177749197  0.28932633427274346  0.9596721601385441  1.0000
  C   C31       1.0  0.8361298908486512  0.4197376161358506  0.9488239415475155  1.0000
  C   C32       1.0  0.8254577930879875  0.48419106645329757  0.06262173794646797  1.0000
  C   C33       1.0  0.892669179267584  0.08544882880665639  0.09142594081543831  1.0000
  O   O2        1.0  0.8712229910544992  0.012234123356287263  0.007244029428874921  1.0000
  C   C34       1.0  0.9395474886220677  0.030293206454528265  0.19605973023901924  1.0000
  C   C35       1.0  0.9339283596807939  0.8983304925510461  0.24132597010015333  1.0000
  C   C36       1.0  0.9784355081701382  0.8450449429166752  0.3388715370175599  1.0000
  F   F1        1.0  0.9722603029974263  0.7179772420956748  0.3825338166213159  1.0000
  C   C37       1.0  0.029281578029784816  0.9225906768350588  0.39133527472670027  1.0000
  C   C38       1.0  0.03590304145902956  0.05334617606740122  0.34600373047818245  1.0000
  C   C39       1.0  0.9915339644318053  0.10704330169216325  0.24852914006098126  1.0000
  H   H19       1.0  0.7936755931363506  0.6651968636622672  0.3767559991198939  1.0000
  H   H20       1.0  0.8654714240617333  0.23762626675333864  0.2897394500299266  1.0000
  H   H21       1.0  0.8668210460523342  0.2387582421207004  0.8726418372341405  1.0000
  H   H22       1.0  0.8084839448215664  0.5847981557051669  0.05499527923284164  1.0000
  H   H23       1.0  0.8270914325328731  0.46949805019015867  0.6172263194779983  1.0000
  H   H24       1.0  0.8947093455855861  0.8368741341237824  0.20195615472174966  1.0000
  H   H25       1.0  0.06375737154427719  0.8813215031620117  0.46674351339686093  1.0000
  H   H26       1.0  0.07566810943527602  0.11305374190442818  0.38601227065657695  1.0000
  H   H27       1.0  0.9983866316748731  0.20799939822395452  0.21327325883145898  1.0000
  Zn  Zn1       1.0  0.7599142777847241  0.41976458589067756  0.5674713572744534  1.0000
  Zn  Zn2       1.0  0.9124560703566422  0.4195076098105319  0.5674405205275328  1.0000
  C   C40       1.0  0.8361500599526336  0.4145252501470542  0.8046502947436032  1.0000
  C   C41       1.0  0.8362219540636878  0.4247485815436851  0.3302617102855585  1.0000
  C   C42       1.0  0.8362064045774869  0.6568477561852635  0.5622952496756306  1.0000
  C   C43       1.0  0.8361655572402686  0.18242451517348823  0.5726168245092651  1.0000
  O   O3        1.0  0.8941023302932761  0.42639506657111936  0.3786358359955522  1.0000
  O   O4        1.0  0.8940453746803058  0.41268274631399327  0.7562523907528653  1.0000
  O   O5        1.0  0.8940900931010645  0.6083612361993365  0.560548977396736  1.0000
  O   O6        1.0  0.8940575598361068  0.23071658603864265  0.5743391519884053  1.0000
  O   O7        1.0  0.7783127362502336  0.6085556097516729  0.5605727258172728  1.0000
  O   O8        1.0  0.7782680179730144  0.41287868028742225  0.75627607002136  1.0000
  O   O9        1.0  0.7783249738682203  0.4265909548700537  0.3786579538656909  1.0000
  O   O10       1.0  0.7782802033924353  0.23091246507381635  0.5743613672255121  1.0000
