data_image0
_chemical_formula_structural       NC8NC6H8C7OC3OC4H12C7OC3FC3H9Zn2C4O8
_chemical_formula_sum              "N2 C45 H29 O11 F1 Zn2"
_cell_length_a       17.457602349358154
_cell_length_b       10.299371110280156
_cell_length_c       10.29938172300155
_cell_angle_alpha    85.59389208423815
_cell_angle_beta     92.85910674266745
_cell_angle_gamma    91.70033728131911

_space_group_name_H-M_alt    "P 1"
_space_group_IT_number       1

loop_
  _space_group_symop_operation_xyz
  'x, y, z'

loop_
  _atom_site_type_symbol
  _atom_site_label
  _atom_site_symmetry_multiplicity
  _atom_site_fract_x
  _atom_site_fract_y
  _atom_site_fract_z
  _atom_site_occupancy
  N   N1        1.0  0.7228544529022863  0.4524907269263141  0.6270026231760324  1.0000
  C   C1        1.0  0.6617720915583128  0.4065624974996871  0.6163720597267721  1.0000
  C   C2        1.0  0.5857830501725205  0.3494334969498556  0.6031571824707975  1.0000
  C   C3        1.0  0.5272471859389811  0.38961476167260756  0.678066789054949  1.0000
  C   C4        1.0  0.4526964104297418  0.3346041947193106  0.6654670323068896  1.0000
  C   C5        1.0  0.3905692053564617  0.3770297533518421  0.744799104934901  1.0000
  C   C6        1.0  0.31603448565835984  0.3954840191129141  0.6890425224356795  1.0000
  C   C7        1.0  0.2574985753733383  0.4354813847657568  0.7640600208667259  1.0000
  C   C8        1.0  0.1815261575488883  0.45454094113121957  0.7060882108227746  1.0000
  N   N2        1.0  0.1204572492349385  0.469858444749069  0.6594790245078503  1.0000
  C   C9        1.0  0.273005168953706  0.45726775772325956  0.8953426907276745  1.0000
  C   C10       1.0  0.3467551717534478  0.43920258026863523  0.9514869922716969  1.0000
  C   C11       1.0  0.4052794240369599  0.3993853871229074  0.8769272666774273  1.0000
  C   C12       1.0  0.43797029574450413  0.2387345728704664  0.5765245508016601  1.0000
  C   C13       1.0  0.4964944118903912  0.19883209221560816  0.5020150322159909  1.0000
  C   C14       1.0  0.5702603438707259  0.25395517609857987  0.515164766695781  1.0000
  H   H1        1.0  0.5395901390238186  0.4648266204624607  0.744721009599413  1.0000
  H   H2        1.0  0.3037047274667439  0.38048756434642295  0.5870147810643922  1.0000
  H   H3        1.0  0.2281384229024712  0.4881657699803801  0.9541876789861921  1.0000
  H   H4        1.0  0.358571493265712  0.4557566102293267  0.053141988146791386  1.0000
  H   H5        1.0  0.4617552005069605  0.3844052651764176  0.9230280824672699  1.0000
  H   H6        1.0  0.381481298474277  0.19339600621098652  0.5658580637521649  1.0000
  H   H7        1.0  0.4846656228167743  0.12473639596454245  0.43416287448023505  1.0000
  H   H8        1.0  0.6151269294051882  0.2221875908618447  0.456830610991686  1.0000
  C   C15       1.0  0.9216078129541418  0.0798010430896432  0.6431220988554107  1.0000
  C   C16       1.0  0.9127913410746644  0.08866998027760653  0.5064192533488909  1.0000
  C   C17       1.0  0.9074779178570296  0.9759184935281242  0.437567519422029  1.0000
  C   C18       1.0  0.9128293692273097  0.8534038369069727  0.5067334400048682  1.0000
  C   C19       1.0  0.9217112254460581  0.8425384403293391  0.6433713936554821  1.0000
  C   C20       1.0  0.9258481815910081  0.9563229727060507  0.7107963535759951  1.0000
  C   C21       1.0  0.8989684576573597  0.985190352779082  0.2931279720612425  1.0000
  O   O1        1.0  0.9304285654941892  0.9015101312180598  0.23167583505906686  1.0000
  C   C22       1.0  0.8547605535619954  0.08931101832802568  0.21840746315273263  1.0000
  C   C23       1.0  0.8762266603465889  0.13537761378567215  0.0930205096712875  1.0000
  C   C24       1.0  0.8347412279372927  0.23256179924118525  0.020252381940489617  1.0000
  O   O2        1.0  0.8592570541350304  0.27540922212279684  0.8961592232643816  1.0000
  C   C25       1.0  0.8227007380174808  0.3732775907524941  0.8117397311683652  1.0000
  C   C26       1.0  0.770373995033004  0.283623277608416  0.07348189239937741  1.0000
  C   C27       1.0  0.7481204913966848  0.23723207865071494  0.1972874986774491  1.0000
  C   C28       1.0  0.7897421999760997  0.1403349626710153  0.26931459316189255  1.0000
  H   H9        1.0  0.9394162054109693  0.2704549686906226  0.9009651439726345  1.0000
  H   H10       1.0  0.9109006895421552  0.18350887674709804  0.4532360415522265  1.0000
  H   H11       1.0  0.9093109394342169  0.7663769224224634  0.45372453333982676  1.0000
  H   H12       1.0  0.9326455292028013  0.9486818923233232  0.816184271264673  1.0000
  H   H13       1.0  0.9257614068157757  0.5109449912440718  0.6957881625396938  1.0000
  H   H14       1.0  0.9258387400019797  0.096637604673812  0.05170080696445756  1.0000
  H   H15       1.0  0.8540130383505536  0.38771358529269495  0.7204281040896756  1.0000
  H   H16       1.0  0.8238230257225299  0.4667947913691166  0.8588496312483915  1.0000
  H   H17       1.0  0.7625798369108252  0.3424132944630578  0.7870651543088028  1.0000
  H   H18       1.0  0.737058220557577  0.35865481550483613  0.019873070729112596  1.0000
  H   H19       1.0  0.6982186625034654  0.276120537587365  0.23736182385300508  1.0000
  H   H20       1.0  0.7705872967983176  0.10437353853355669  0.36412698981612746  1.0000
  C   C29       1.0  0.921724087822133  0.4610714160100491  0.26188431220231134  1.0000
  C   C30       1.0  0.9459850116844856  0.33167611124182095  0.27268600865618753  1.0000
  C   C31       1.0  0.9590550963951437  0.2669053410584634  0.1609935428811513  1.0000
  C   C32       1.0  0.9459116732082306  0.3319660431601996  0.03741406086929455  1.0000
  C   C33       1.0  0.9215949160323786  0.46126802024161684  0.02460918080012764  1.0000
  C   C34       1.0  0.909835227126982  0.5251848944810478  0.13746108202878515  1.0000
  C   C35       1.0  0.9838963940537485  0.12982137378798675  0.17222426122660472  1.0000
  O   O3        1.0  0.9602566318206475  0.05554433501932832  0.08608896915922437  1.0000
  C   C36       1.0  0.035561054421815674  0.07700478713303616  0.2810720834352485  1.0000
  C   C37       1.0  0.029362736824236624  0.9447726016127587  0.3257972838375476  1.0000
  C   C38       1.0  0.07841410069419563  0.8937078488034718  0.427343494322731  1.0000
  F   F1        1.0  0.07160309787574182  0.7663425968709581  0.470415846317078  1.0000
  C   C39       1.0  0.13445705533419083  0.9737797882403807  0.4844135456184122  1.0000
  C   C40       1.0  0.14176004628749972  0.10485477367086116  0.4397131364713516  1.0000
  C   C41       1.0  0.09286087384314223  0.15633794651956356  0.3382504629372802  1.0000
  H   H21       1.0  0.8748136785453636  0.7045935938707326  0.4487755700852616  1.0000
  H   H22       1.0  0.9539264449709253  0.28063230223605773  0.36812403259701565  1.0000
  H   H23       1.0  0.955413972839881  0.28183140427377484  0.9511484464074607  1.0000
  H   H24       1.0  0.8911315025381762  0.6249387155489465  0.12832969408563222  1.0000
  H   H25       1.0  0.9116351600019087  0.5105743946686987  0.6922092060635254  1.0000
  H   H26       1.0  0.9861351534568312  0.8813678385498189  0.28287406238980184  1.0000
  H   H27       1.0  0.17245285513622477  0.9342308710361429  0.5629207344796066  1.0000
  H   H28       1.0  0.1855893928754917  0.1665380770171625  0.4833238823878947  1.0000
  H   H29       1.0  0.10041751008432453  0.25762738792795603  0.30363884679341924  1.0000
  Zn  Zn1       1.0  0.8375940295212678  0.4574991943137312  0.6363821082742076  1.0000
  Zn  Zn2       1.0  0.005717655122209342  0.46483933214973616  0.6501101682762525  1.0000
  C   C42       1.0  0.9216169397509314  0.45605706873456375  0.8804360021408311  1.0000
  C   C43       1.0  0.9216965809978782  0.4662831765559192  0.4060565523194355  1.0000
  C   C44       1.0  0.9216885991084033  0.6983633203984685  0.6381488502982022  1.0000
  C   C45       1.0  0.9216248640483073  0.22397536208309554  0.6483437682051478  1.0000
  O   O4        1.0  0.9854893884201827  0.47081216924817193  0.45965179850712246  1.0000
  O   O5        1.0  0.9854260739743251  0.4570980909894746  0.8372596616891426  1.0000
  O   O6        1.0  0.9854830795010826  0.6527634163865443  0.6416110025651167  1.0000
  O   O7        1.0  0.9854323255419672  0.275146850611645  0.6553003555767165  1.0000
  O   O8        1.0  0.8578793017291692  0.6471916733484062  0.6311919162821995  1.0000
  O   O9        1.0  0.8578222964221698  0.45152790825683886  0.8268405066715985  1.0000
  O   O10       1.0  0.8578856111772913  0.4652419408586903  0.4492310821048393  1.0000
  O   O11       1.0  0.8578285482781928  0.269576612958204  0.644879736537322  1.0000
