data_image0
_chemical_formula_structural       NC12NC2H8C7OC6H10C6SCOC6H10Zn2C4O8
_chemical_formula_sum              "N2 C44 H28 O10 S1 Zn2"
_cell_length_a       19.240039667572717
_cell_length_b       10.299379429549807
_cell_length_c       10.302041481415108
_cell_angle_alpha    85.5191038852169
_cell_angle_beta     89.99620935601247
_cell_angle_gamma    89.99618039744932

_space_group_name_H-M_alt    "P 1"
_space_group_IT_number       1

loop_
  _space_group_symop_operation_xyz
  'x, y, z'

loop_
  _atom_site_type_symbol
  _atom_site_label
  _atom_site_symmetry_multiplicity
  _atom_site_fract_x
  _atom_site_fract_y
  _atom_site_fract_z
  _atom_site_occupancy
  N   N1        1.0  0.6544771336525805  0.4218576247414063  0.5672603150287716  1.0000
  C   C1        1.0  0.5943287648352044  0.4218577087562039  0.5672602330800072  1.0000
  C   C2        1.0  0.5195107276947176  0.42185782609671785  0.5672600957637355  1.0000
  C   C3        1.0  0.4830356529365167  0.35735264417909374  0.6706724246999305  1.0000
  C   C4        1.0  0.41036490572828893  0.3572417261368599  0.670758987122346  1.0000
  C   C5        1.0  0.3731784927621438  0.4218579187467608  0.567259868098621  1.0000
  C   C6        1.0  0.41036775816965526  0.4864742982863419  0.4637609435083041  1.0000
  C   C7        1.0  0.48303844752921504  0.4863631446878951  0.4638476284872788  1.0000
  C   C8        1.0  0.2959734023287005  0.42185784011416927  0.5672597727310715  1.0000
  C   C9        1.0  0.2587881516963183  0.30857570003894375  0.6091609155200925  1.0000
  C   C10       1.0  0.186117462731396  0.3086826384910091  0.6090695725266817  1.0000
  C   C11       1.0  0.14964111540795547  0.42185771091234336  0.5672598336732089  1.0000
  C   C12       1.0  0.0748230782482583  0.4218575970759393  0.5672600823200804  1.0000
  N   N2        1.0  0.0146747613902375  0.421857556177228  0.56726029070878  1.0000
  C   C13       1.0  0.1861122789402949  0.5350328591842695  0.5254500419139716  1.0000
  C   C14       1.0  0.2587829745767175  0.535139977824757  0.525358536298292  1.0000
  H   H1        1.0  0.5107494412913631  0.3074110928696494  0.7514136864094803  1.0000
  H   H2        1.0  0.3832704533967162  0.3080979179708938  0.7526152378512669  1.0000
  H   H3        1.0  0.3832756797139345  0.535618133524099  0.38190464193248364  1.0000
  H   H4        1.0  0.5107544306312646  0.5363045956325785  0.3831066425486851  1.0000
  H   H5        1.0  0.28588350373475896  0.2194041181629951  0.6403528420098936  1.0000
  H   H6        1.0  0.1584046289664457  0.22040992957076844  0.6412939305716674  1.0000
  H   H7        1.0  0.1583952892578156  0.623305543561111  0.4932256984248262  1.0000
  H   H8        1.0  0.285874101354247  0.6243116388976722  0.4941665650190439  1.0000
  C   C15       1.0  0.834586863576073  0.04046564469170577  0.5674143182681028  1.0000
  C   C16       1.0  0.8767144031189718  0.030539441975384607  0.6791352997729141  1.0000
  C   C17       1.0  0.897310803746771  0.9082934069217993  0.7363351161358875  1.0000
  C   C18       1.0  0.8766298145563323  0.7953174624392211  0.6788590782955677  1.0000
  C   C19       1.0  0.8345717094522341  0.8032395721279019  0.5671174761757674  1.0000
  C   C20       1.0  0.8136432302558747  0.9262874009667191  0.51224034157366  1.0000
  C   C21       1.0  0.942397984064123  0.8977291735211856  0.8535067583224698  1.0000
  O   O1        1.0  0.9864905884790452  0.8069385783761109  0.8658602244088083  1.0000
  C   C22       1.0  0.937461055408949  0.9900601646184932  0.9566687693109588  1.0000
  C   C23       1.0  0.9969086543419858  0.019500845302097725  0.028215630671700187  1.0000
  C   C24       1.0  0.9926004511163719  0.10522731025988996  0.12668618443249424  1.0000
  C   C25       1.0  0.9289329939138105  0.1615112616679113  0.15543808185141306  1.0000
  C   C26       1.0  0.8693787626136144  0.13176095814221833  0.08613482456952393  1.0000
  C   C27       1.0  0.873407864115776  0.04611417555647046  0.9875766232550829  1.0000
  H   H9        1.0  0.7559667376387342  0.26660772266052546  0.3554296810739783  1.0000
  H   H10       1.0  0.8941959464069168  0.1181133413848654  0.7209630680110986  1.0000
  H   H11       1.0  0.8928985935782976  0.7010014417685886  0.7222866936625458  1.0000
  H   H12       1.0  0.7811663992512039  0.9331356625734031  0.4261112795591051  1.0000
  H   H13       1.0  0.8188986341448213  0.47887558682226744  0.5235595027510058  1.0000
  H   H14       1.0  0.046769402040500285  0.9770627700869343  0.007172934440536571  1.0000
  H   H15       1.0  0.03867039519110027  0.1279792791377543  0.18077030137758743  1.0000
  H   H16       1.0  0.9256929719589719  0.2277560033284376  0.23176223717345945  1.0000
  H   H17       1.0  0.819965173764893  0.1746371055360607  0.10917690497076415  1.0000
  H   H18       1.0  0.8263779654422  0.022676252393010632  0.9366515548552505  1.0000
  C   C28       1.0  0.834592312705472  0.4219818809516165  0.18597882120581555  1.0000
  C   C29       1.0  0.8664529221276172  0.5450875387197822  0.1750179363807145  1.0000
  C   C30       1.0  0.8826149393234932  0.6058172175326357  0.05260898961382465  1.0000
  C   C31       1.0  0.8665188933493463  0.5446836523939651  0.9399126816108443  1.0000
  C   C32       1.0  0.8345662767745055  0.4217233068951203  0.9485530127426962  1.0000
  C   C33       1.0  0.8188196721711579  0.36095507031161844  0.07215540097967788  1.0000
  S   S1        1.0  0.923936601918288  0.7623593279198222  0.0400255313676432  1.0000
  C   C34       1.0  0.009554826325119503  0.6925545029906317  0.04262109396518099  1.0000
  O   O2        1.0  0.036755318479708254  0.6693803792775062  0.9355698422092424  1.0000
  C   C35       1.0  0.047864499367925584  0.6612099680816741  0.1661577940765009  1.0000
  C   C36       1.0  0.10952220473231167  0.5874822493679448  0.16637874773324124  1.0000
  C   C37       1.0  0.14574779061318321  0.5565836771288837  0.28234284020628575  1.0000
  C   C38       1.0  0.12105344355534364  0.5989336979522668  0.39926393550491945  1.0000
  C   C39       1.0  0.06014274182355828  0.6725025964008204  0.4004233103265915  1.0000
  C   C40       1.0  0.02370969618175689  0.7037753253688042  0.28475847826914413  1.0000
  H   H19       1.0  0.774436476954534  0.19006236363098705  0.41394649134650585  1.0000
  H   H20       1.0  0.878937479139216  0.5940181957404391  0.2613132270772509  1.0000
  H   H21       1.0  0.8792980484091198  0.593282759568275  0.8459224011351254  1.0000
  H   H22       1.0  0.7942590267176198  0.2660491632881665  0.07968490727623334  1.0000
  H   H23       1.0  0.8226076773477277  0.3748039092462241  0.6245120082641775  1.0000
  H   H24       1.0  0.1295992863766937  0.5530223160760179  0.07707350229137466  1.0000
  H   H25       1.0  0.19299366478748858  0.49959583661199347  0.2815179927015923  1.0000
  H   H26       1.0  0.14915899206588534  0.5748811017458384  0.48893535992937176  1.0000
  H   H27       1.0  0.041144917844738504  0.7055754099866292  0.4910831334453043  1.0000
  H   H28       1.0  0.9769912442255801  0.7617052782082965  0.2888102175799594  1.0000
  Zn  Zn1       1.0  0.7584223973052443  0.42185413500522895  0.5672677961788639  1.0000
  Zn  Zn2       1.0  0.910729516357104  0.4218504482004961  0.567263410306893  1.0000
  C   C41       1.0  0.8345697322818294  0.41659820782087364  0.8044121500987178  1.0000
  C   C42       1.0  0.8345838445326018  0.4271080140199446  0.3301191831405379  1.0000
  C   C43       1.0  0.8345711694622303  0.659060809935663  0.5619995315346176  1.0000
  C   C44       1.0  0.8345823554090713  0.18464385148611528  0.5725318715371353  1.0000
  O   O3        1.0  0.892380760573991  0.4288213258986493  0.37849234313369684  1.0000
  O   O4        1.0  0.8923703954862023  0.41488111808772943  0.7560352879456815  1.0000
  O   O5        1.0  0.8923707768130359  0.610672735214643  0.5602853828425911  1.0000
  O   O6        1.0  0.8923803272781967  0.23302971809678574  0.5742421508808953  1.0000
  O   O7        1.0  0.7767715344092071  0.6106748651116141  0.5602890555995279  1.0000
  O   O8        1.0  0.7767711530505582  0.4148848084064143  0.7560388908647875  1.0000
  O   O9        1.0  0.7767815182388134  0.42882497148792065  0.37849438500477417  1.0000
  O   O10       1.0  0.7767810849370352  0.23303335436368133  0.5742442901025315  1.0000
