data_image0
_chemical_formula_structural       NC9NC5H8C6NCOC6H11C7OC6OCH12Zn2C4O8
_chemical_formula_sum              "N3 C45 H31 O11 Zn2"
_cell_length_a       17.807436237873137
_cell_length_b       10.29965916528486
_cell_length_c       10.299362532796529
_cell_angle_alpha    85.59689086151258
_cell_angle_beta     89.40785739381339
_cell_angle_gamma    88.40731929758992

_space_group_name_H-M_alt    "P 1"
_space_group_IT_number       1

loop_
  _space_group_symop_operation_xyz
  'x, y, z'

loop_
  _atom_site_type_symbol
  _atom_site_label
  _atom_site_symmetry_multiplicity
  _atom_site_fract_x
  _atom_site_fract_y
  _atom_site_fract_z
  _atom_site_occupancy
  N   N1        1.0  0.7074305028417885  0.38727562964756124  0.5575762007814158  1.0000
  C   C1        1.0  0.6468351921840868  0.3520836724985008  0.5465412503842186  1.0000
  C   C2        1.0  0.5714612857127841  0.3083087533409665  0.5328149702694449  1.0000
  C   C3        1.0  0.5533414245155523  0.23686418084496963  0.42779024260243204  1.0000
  C   C4        1.0  0.4801572188529627  0.19425058983006838  0.41438024638565296  1.0000
  C   C5        1.0  0.4240440855540844  0.22270404367299057  0.5059624072962565  1.0000
  C   C6        1.0  0.3462681729706589  0.1775317092308628  0.4917931642151281  1.0000
  C   C7        1.0  0.2841099476764113  0.2592931579766766  0.5177577070257371  1.0000
  C   C8        1.0  0.2107834040972033  0.21647653936973588  0.5043613277978356  1.0000
  C   C9        1.0  0.147575610764504  0.3009293658499683  0.5306906202516022  1.0000
  N   N2        1.0  0.0967695320951398  0.36882359588695146  0.5518586430584473  1.0000
  C   C10       1.0  0.1990314924132727  0.09164049248163031  0.46497497478416294  1.0000
  C   C11       1.0  0.2603323442021041  0.009865189336150548  0.4390020379573185  1.0000
  C   C12       1.0  0.3335393564602966  0.05228721802553338  0.4521957555801073  1.0000
  C   C13       1.0  0.4428554703992597  0.2946430333476664  0.6112065192078784  1.0000
  C   C14       1.0  0.5160924905987192  0.3370661888714366  0.624460805550755  1.0000
  H   H1        1.0  0.5957214691850146  0.2143579758200107  0.35607083041146037  1.0000
  H   H2        1.0  0.46722267321718985  0.14054492640449712  0.33144336190905466  1.0000
  H   H3        1.0  0.2926287085293064  0.3567637041594194  0.5466653000545747  1.0000
  H   H4        1.0  0.1425589526304792  0.057602312651801046  0.45436942508734446  1.0000
  H   H5        1.0  0.2511151967996078  0.9132143537255828  0.4088942995297864  1.0000
  H   H6        1.0  0.3801658909666018  0.9865384976451711  0.4331267423755283  1.0000
  H   H7        1.0  0.4011924109990094  0.31661059756716026  0.6842202519430429  1.0000
  H   H8        1.0  0.5295554375379942  0.39199208443577294  0.7063564544501522  1.0000
  C   C15       1.0  0.9020375068820397  0.9966918667079699  0.5546028855033225  1.0000
  C   C16       1.0  0.9025271815287358  0.005907273189454276  0.4177824201454461  1.0000
  C   C17       1.0  0.9038816740387704  0.8936612204438857  0.34892830165681277  1.0000
  C   C18       1.0  0.9026687733035946  0.770710361607078  0.4180767192568906  1.0000
  C   C19       1.0  0.9021696910458881  0.7593970258083761  0.5548431002413523  1.0000
  C   C20       1.0  0.9021212304726623  0.8729827378026479  0.6223303370011131  1.0000
  N   N3        1.0  0.9032281660609764  0.9067216517162073  0.20887455051049297  1.0000
  C   C21       1.0  0.9384309958572364  0.8138997496741593  0.1286330645425231  1.0000
  O   O1        1.0  0.9902634856183921  0.7386391219941034  0.1748490017186093  1.0000
  C   C22       1.0  0.9165734734736305  0.8086962577222301  0.9905905742650827  1.0000
  C   C23       1.0  0.8470991992184724  0.8618318352647366  0.9452659743003462  1.0000
  C   C24       1.0  0.8269483413003388  0.8557331431166078  0.8150418732276115  1.0000
  C   C25       1.0  0.8755717879064697  0.7963153384431829  0.7288729234395097  1.0000
  C   C26       1.0  0.9443845231764271  0.7424231669082247  0.7728310466291828  1.0000
  C   C27       1.0  0.9648221625528984  0.7481519027743107  0.902946463784065  1.0000
  H   H9        1.0  0.9003967747209903  0.18660648940816782  0.8127006717626095  1.0000
  H   H10       1.0  0.9024325160956166  0.10050443220254546  0.3639619104160825  1.0000
  H   H11       1.0  0.9007950218615328  0.6839922492515498  0.3652999757123321  1.0000
  H   H12       1.0  0.9017537919657833  0.8650128352591475  0.7278033285676138  1.0000
  H   H13       1.0  0.9009787715583353  0.42765551658463696  0.6073210067943311  1.0000
  H   H14       1.0  0.8817857786146344  0.9938566230378808  0.16324994989968156  1.0000
  H   H15       1.0  0.8077416765676436  0.9064138428371821  0.01032497677360844  1.0000
  H   H16       1.0  0.7734032406902882  0.8966933910361158  0.7810431652033349  1.0000
  H   H17       1.0  0.8598237583403175  0.7916732147989805  0.6281487673867492  1.0000
  H   H18       1.0  0.9819642744977138  0.6961290948869557  0.7060344681037156  1.0000
  H   H19       1.0  0.0185550503699925  0.7059959502816834  0.9347237516373639  1.0000
  C   C28       1.0  0.9020449544027145  0.3779267120328609  0.17335694791496659  1.0000
  C   C29       1.0  0.8307220712779418  0.3226277338329151  0.17767336187545557  1.0000
  C   C30       1.0  0.7944251863560167  0.29607511918109  0.06268409943938269  1.0000
  C   C31       1.0  0.8309336607718405  0.32278125979750416  0.9424160067181337  1.0000
  C   C32       1.0  0.902162266733723  0.37816220072126683  0.9360890767835328  1.0000
  C   C33       1.0  0.9372452672303536  0.4056739218256298  0.05210529781333273  1.0000
  C   C34       1.0  0.7194918170651118  0.23633031131380244  0.06956722327743625  1.0000
  O   O2        1.0  0.7041293464832785  0.1578537136751208  0.1656642372432262  1.0000
  C   C35       1.0  0.6619893697482075  0.26560611067171624  0.9675052778711182  1.0000
  C   C36       1.0  0.6562335982573445  0.3892484545340056  0.8997755771970666  1.0000
  C   C37       1.0  0.6012495557262546  0.41603334078779075  0.8048951182429827  1.0000
  C   C38       1.0  0.5506976297250483  0.32076722836832117  0.7765576627705344  1.0000
  C   C39       1.0  0.5556633754163287  0.19735587612660455  0.8452172426012012  1.0000
  C   C40       1.0  0.6106406635926709  0.17044411395452097  0.9401701653655747  1.0000
  O   O3        1.0  0.49662197419554477  0.352488923265164  0.6803764835437014  1.0000
  C   C41       1.0  0.4418313006723623  0.2653265554230593  0.6417799753255249  1.0000
  H   H20       1.0  0.036759346381213254  0.48177837646266397  0.3725179547840449  1.0000
  H   H21       1.0  0.8029026187684095  0.30120580011796516  0.27060875565019926  1.0000
  H   H22       1.0  0.8040737113748002  0.2989747748794256  0.8537484137181806  1.0000
  H   H23       1.0  0.9921931375327925  0.448392094930393  0.04795731152824678  1.0000
  H   H24       1.0  0.9296130150155345  0.3989187100759328  0.6062237643015642  1.0000
  H   H25       1.0  0.693692608640194  0.4657219739100762  0.9210745370561453  1.0000
  H   H26       1.0  0.5976866554040238  0.5116592645153502  0.7534141146404165  1.0000
  H   H27       1.0  0.5173415324752637  0.1216090208745042  0.8260279470835079  1.0000
  H   H28       1.0  0.6134736297857503  0.07467092018888777  0.9915486382807739  1.0000
  H   H29       1.0  0.4065523780000785  0.3156924257054785  0.5642301166995698  1.0000
  H   H30       1.0  0.4051413147547175  0.23485318393474985  0.7258582191155547  1.0000
  H   H31       1.0  0.4698213389945145  0.17868213988280113  0.6026860181044187  1.0000
  Zn  Zn1       1.0  0.819785335859914  0.38194730842597724  0.5559337467732008  1.0000
  Zn  Zn2       1.0  0.984414680686983  0.37414133454542164  0.5535117702642463  1.0000
  C   C42       1.0  0.9021375092894233  0.3729442542242818  0.7919147541585185  1.0000
  C   C43       1.0  0.902064305308409  0.38314594211639674  0.3175308644126351  1.0000
  C   C44       1.0  0.9021400523407187  0.6152281286585728  0.5496226370108703  1.0000
  C   C45       1.0  0.902061705820841  0.14086051011087952  0.5598230511333946  1.0000
  O   O4        1.0  0.9645467770559765  0.3819295714310489  0.3649978185867846  1.0000
  O   O5        1.0  0.964604900774563  0.36823509154339584  0.7426092017029762  1.0000
  O   O6        1.0  0.9646061123222475  0.5638824245974001  0.5469566156651045  1.0000
  O   O7        1.0  0.9645455093180835  0.18628225030057544  0.5606503080801011  1.0000
  O   O8        1.0  0.8396544510488971  0.5698063953360306  0.5487952097770175  1.0000
  O   O9        1.0  0.8396532397575683  0.3741606225184595  0.7444477270614491  1.0000
  O   O10       1.0  0.8395951158409766  0.3878550566670249  0.3668347825412852  1.0000
  O   O11       1.0  0.8395938481133753  0.19220772627822758  0.5624873693988279  1.0000
