data_image0
_chemical_formula_structural       NC8NC6H8C6SCOC6H10C7OC6H10Zn2C4O8
_chemical_formula_sum              "N2 C44 H28 S1 O10 Zn2"
_cell_length_a       17.457602349358154
_cell_length_b       10.302038109246572
_cell_length_c       10.299382801718286
_cell_angle_alpha    85.57853228507349
_cell_angle_beta     92.85617812018302
_cell_angle_gamma    91.70619204985762

_space_group_name_H-M_alt    "P 1"
_space_group_IT_number       1

loop_
  _space_group_symop_operation_xyz
  'x, y, z'

loop_
  _atom_site_type_symbol
  _atom_site_label
  _atom_site_symmetry_multiplicity
  _atom_site_fract_x
  _atom_site_fract_y
  _atom_site_fract_z
  _atom_site_occupancy
  N   N1        1.0  0.7229772844844022  0.45224246449827676  0.6267207453072918  1.0000
  C   C1        1.0  0.6618927327727142  0.40632611433489907  0.616098933156263  1.0000
  C   C2        1.0  0.5859009665845254  0.34921188949705084  0.6028949414505886  1.0000
  C   C3        1.0  0.5273649626516467  0.3893778701634325  0.6777970881658513  1.0000
  C   C4        1.0  0.45281155945999774  0.33438152168963886  0.6652078136891229  1.0000
  C   C5        1.0  0.39068419941239396  0.37679092481000787  0.7445320104966908  1.0000
  C   C6        1.0  0.3161522409084002  0.3952448925550167  0.6887717319881725  1.0000
  C   C7        1.0  0.2576161774388338  0.4352270104999518  0.7637818060413517  1.0000
  C   C8        1.0  0.1816466234840773  0.45428628788405967  0.705806177604146  1.0000
  N   N2        1.0  0.1205800173661648  0.4696035687298079  0.6591939225215182  1.0000
  C   C9        1.0  0.2731198540694427  0.4569983371254138  0.8950607025335702  1.0000
  C   C10       1.0  0.34686710490337624  0.43893333485888264  0.951208626839851  1.0000
  C   C11       1.0  0.405391505925726  0.39913131180127914  0.876656292538265  1.0000
  C   C12       1.0  0.4380829644603901  0.23854167283077188  0.5762833996521037  1.0000
  C   C13       1.0  0.4966072230857185  0.1986543791088451  0.5017812888194195  1.0000
  C   C14       1.0  0.570375771696052  0.25376317635013  0.5149205211568524  1.0000
  H   H1        1.0  0.539709959467972  0.46456660421137475  0.7444371250297179  1.0000
  H   H2        1.0  0.3038248559762972  0.38025966409810996  0.5867465530784985  1.0000
  H   H3        1.0  0.22825296167150314  0.4878845038703199  0.9538999581270351  1.0000
  H   H4        1.0  0.3586811504167455  0.4554757903111186  0.05286076127357997  1.0000
  H   H5        1.0  0.46186501466764274  0.3841513690849325  0.9227601110546928  1.0000
  H   H6        1.0  0.3815918103468136  0.1932148457723386  0.5656255510287234  1.0000
  H   H7        1.0  0.4847764891470278  0.12458162747354673  0.43394309772836026  1.0000
  H   H8        1.0  0.6152424397912131  0.22200760845116907  0.4565922659402901  1.0000
  C   C15       1.0  0.921709662213507  0.07964154354333441  0.6429115408192667  1.0000
  C   C16       1.0  0.8561394408097445  0.08153311402609664  0.5580368750225293  1.0000
  C   C17       1.0  0.8238753940943042  0.9655314414051656  0.5153523288572608  1.0000
  C   C18       1.0  0.8563862149728783  0.846411280795684  0.5580030236375686  1.0000
  C   C19       1.0  0.9218549934388596  0.8421948040448294  0.6430149845447313  1.0000
  C   C20       1.0  0.9542185904816547  0.9594500028403078  0.6849467725714669  1.0000
  S   S1        1.0  0.7406457886478516  0.9694129727645776  0.40594591794694224  1.0000
  C   C21       1.0  0.7970795024951667  0.9803441284436689  0.2641333602530509  1.0000
  O   O1        1.0  0.8155874441667016  0.8758758353227217  0.21929500868967655  1.0000
  C   C22       1.0  0.8223948280710593  0.10760339713382772  0.20070352124074198  1.0000
  C   C23       1.0  0.8766573647296936  0.11229295629998637  0.10362897476261579  1.0000
  C   C24       1.0  0.9013267438675923  0.2316947250140866  0.04392082981682144  1.0000
  C   C25       1.0  0.8721488617055931  0.3476648256815851  0.08003898129665998  1.0000
  C   C26       1.0  0.8181173230957053  0.34445768226238815  0.17577935299947023  1.0000
  C   C27       1.0  0.7931921601750996  0.22534844264346354  0.2357867793114028  1.0000
  H   H9        1.0  0.04521296428975652  0.28337633266947204  0.803051839697341  1.0000
  H   H10       1.0  0.8300441240722607  0.17290988655728712  0.5246298810267274  1.0000
  H   H11       1.0  0.8305381583308249  0.75752522469224  0.5241276940408948  1.0000
  H   H12       1.0  0.00476894261600691  0.9570714348050952  0.7503761610650586  1.0000
  H   H13       1.0  0.9468800696872401  0.5132829602149733  0.6750253519643317  1.0000
  H   H14       1.0  0.9003961122249117  0.023759144377506924  0.07427027253907426  1.0000
  H   H15       1.0  0.9431923272210336  0.2342617274594032  0.9696426686655761  1.0000
  H   H16       1.0  0.8913350121530519  0.43999807025967974  0.033731784029605416  1.0000
  H   H17       1.0  0.7953844079337259  0.43441797242864544  0.20345955403438842  1.0000
  H   H18       1.0  0.7508773880736881  0.22614932383026987  0.30889591876635203  1.0000
  C   C28       1.0  0.9218588325287438  0.4608483022123828  0.2615997005024919  1.0000
  C   C29       1.0  0.00245876285017399  0.4652309067120597  0.26687894232262344  1.0000
  C   C30       1.0  0.043110798583428256  0.4659536330049454  0.1524833248772739  1.0000
  C   C31       1.0  0.002271814286933127  0.465250773780185  0.03161810845470803  1.0000
  C   C32       1.0  0.9217057667571338  0.46098803932903465  0.024326750983692413  1.0000
  C   C33       1.0  0.8819665500788638  0.4584668879861691  0.13992149344118876  1.0000
  C   C34       1.0  0.128214111920947  0.47196472822444235  0.15780570412408568  1.0000
  O   O2        1.0  0.16202907727164462  0.5341356459049964  0.06604788774507386  1.0000
  C   C35       1.0  0.17495622684938228  0.4074383640362367  0.2671214179673136  1.0000
  C   C36       1.0  0.2470769138207749  0.46103523546076697  0.30411916597330224  1.0000
  C   C37       1.0  0.29194859689192754  0.4000756456436423  0.4060308003679818  1.0000
  C   C38       1.0  0.2656389605033682  0.2846505147756315  0.47123224502589056  1.0000
  C   C39       1.0  0.19453533479491036  0.22965143455045722  0.4342943702552806  1.0000
  C   C40       1.0  0.1494450259508353  0.2902228560978517  0.33246689540526386  1.0000
  H   H19       1.0  0.7697550819546491  0.4545889030197863  0.4588017972014331  1.0000
  H   H20       1.0  0.03371430788506591  0.46954543162479534  0.3600308576726492  1.0000
  H   H21       1.0  0.03353470562922678  0.4667871571012465  0.9432199631992972  1.0000
  H   H22       1.0  0.8198300767682483  0.45508902864977885  0.13504736057180522  1.0000
  H   H23       1.0  0.8907560552504805  0.46045520840107224  0.6939840721295956  1.0000
  H   H24       1.0  0.2683935938665869  0.5506179282199011  0.25493531842983463  1.0000
  H   H25       1.0  0.3471813331302669  0.44236159034218137  0.4344192729941141  1.0000
  H   H26       1.0  0.30048151747598806  0.23755621653422487  0.5500154787211233  1.0000
  H   H27       1.0  0.17446736124124218  0.13966746571038424  0.48420890997219534  1.0000
  H   H28       1.0  0.09513289016217574  0.24469572199137413  0.3039669952468722  1.0000
  Zn  Zn1       1.0  0.8377168423666377  0.4572490236274471  0.6360993006828717  1.0000
  Zn  Zn2       1.0  0.005840441072211933  0.46458636616600657  0.6498259980800749  1.0000
  C   C41       1.0  0.9217320254750876  0.4557890516973384  0.8801542008540097  1.0000
  C   C42       1.0  0.9218270941548256  0.4660480564874998  0.4057713754908747  1.0000
  C   C43       1.0  0.9218245907101603  0.6980548751345972  0.6378199861688991  1.0000
  C   C44       1.0  0.9217344712397794  0.22378067061379814  0.6481056545181254  1.0000
  O   O3        1.0  0.9856184709125094  0.4705719603326206  0.45936591599825727  1.0000
  O   O4        1.0  0.9855425699080292  0.45683304149771753  0.8369775320833384  1.0000
  O   O5        1.0  0.9856164571531812  0.652465720504031  0.6412908691297634  1.0000
  O   O6        1.0  0.9855445263194688  0.2749392880928252  0.6550524768958021  1.0000
  O   O7        1.0  0.8580126997470495  0.6468960991981656  0.6308728171760654  1.0000
  O   O8        1.0  0.8579388128095394  0.4512649801258317  0.8265594110964216  1.0000
  O   O9        1.0  0.8580147141697039  0.4650038534313139  0.4489462336306598  1.0000
  O   O10       1.0  0.8579407695522202  0.26937117192253734  0.6446328918931556  1.0000
