data_image0
_chemical_formula_structural       NC10NC3NCH9C7OC3FC3H9C7OC3FC3H9Zn2C4O8
_chemical_formula_sum              "N3 C44 H27 O10 F2 Zn2"
_cell_length_a       19.437513618241372
_cell_length_b       10.29937835083307
_cell_length_c       10.29938172300155
_cell_angle_alpha    85.56710995607625
_cell_angle_beta     90.33093660507195
_cell_angle_gamma    89.54280298698887

_space_group_name_H-M_alt    "P 1"
_space_group_IT_number       1

loop_
  _space_group_symop_operation_xyz
  'x, y, z'

loop_
  _atom_site_type_symbol
  _atom_site_label
  _atom_site_symmetry_multiplicity
  _atom_site_fract_x
  _atom_site_fract_y
  _atom_site_fract_z
  _atom_site_occupancy
  N   N1        1.0  0.6483291830536202  0.4101616241692059  0.5755488904958381  1.0000
  C   C1        1.0  0.5893994309342595  0.42717158645736997  0.5725718525103849  1.0000
  C   C2        1.0  0.5159634335878748  0.4484239817825262  0.5688765593967602  1.0000
  C   C3        1.0  0.4741829707346932  0.34722858514462684  0.5572235116893729  1.0000
  C   C4        1.0  0.398295735685573  0.3572922181512175  0.5500015824624394  1.0000
  C   C5        1.0  0.35872966101394627  0.438156281482347  0.6157388451321635  1.0000
  C   C6        1.0  0.2825467173156052  0.4295460859561073  0.6072953081382075  1.0000
  C   C7        1.0  0.2493871673400563  0.3081986346623091  0.6119460806251678  1.0000
  C   C8        1.0  0.17765204669170634  0.30182526944872734  0.6047784452611944  1.0000
  C   C9        1.0  0.1381057201637842  0.41632672703093476  0.5933222963343234  1.0000
  C   C10       1.0  0.0642560796552828  0.40961513864772536  0.5859865910429038  1.0000
  N   N2        1.0  0.0048860667792641  0.4042196117605834  0.580089142356013  1.0000
  C   C11       1.0  0.1705485347256126  0.5373637420467956  0.5894168154516912  1.0000
  C   C12       1.0  0.2422681022884617  0.5439911181654145  0.596646456432542  1.0000
  C   C13       1.0  0.3874217518120886  0.530461159837802  0.705652727252416  1.0000
  N   N3        1.0  0.4444212898846863  0.5936717195054566  0.6852447660519254  1.0000
  C   C14       1.0  0.48827183502187554  0.5843890383531478  0.5721383144242749  1.0000
  H   H1        1.0  0.49654964533890417  0.2521672584204955  0.5451081714731205  1.0000
  H   H2        1.0  0.373573954753139  0.28776701161653495  0.4916879743673632  1.0000
  H   H3        1.0  0.27881879767141493  0.21828620518786557  0.6229723659336266  1.0000
  H   H4        1.0  0.1530396665793856  0.20759696528577698  0.6086713527486856  1.0000
  H   H5        1.0  0.1404312568430019  0.6266216760539596  0.5807027067876525  1.0000
  H   H6        1.0  0.2663990429154231  0.6386322311894055  0.5927380640186781  1.0000
  H   H7        1.0  0.3574138754078111  0.5508630848618106  0.7900177274078026  1.0000
  H   H8        1.0  0.5310375945843485  0.6547046205992564  0.5778973926701065  1.0000
  H   H9        1.0  0.4586195232779042  0.6124817149165103  0.4814914618146704  1.0000
  C   C15       1.0  0.8265383967008137  0.025806791846547217  0.5778821686478532  1.0000
  C   C16       1.0  0.7547580459598461  0.027006643156078702  0.5609434089918943  1.0000
  C   C17       1.0  0.71846644284998  0.9103258341882163  0.5538761974801927  1.0000
  C   C18       1.0  0.7549262734812252  0.791759838436597  0.5609524263756385  1.0000
  C   C19       1.0  0.826683430081599  0.7885643185951094  0.5777672221746  1.0000
  C   C20       1.0  0.8620530194739469  0.9061151682464278  0.5864764597857925  1.0000
  C   C21       1.0  0.6427565697906775  0.9115534043529984  0.5346179273612004  1.0000
  O   O1        1.0  0.616192422604821  0.8272889315534674  0.467618894891771  1.0000
  C   C22       1.0  0.5971821363021377  0.008274877347071996  0.5913763161169945  1.0000
  C   C23       1.0  0.5359056972931932  0.04927816885685177  0.5268154108252858  1.0000
  C   C24       1.0  0.49219349435375487  0.13927709673690147  0.5803195049160743  1.0000
  F   F1        1.0  0.4335000575982589  0.17892968299450351  0.5168528473637637  1.0000
  C   C25       1.0  0.5089208744999054  0.18832489510583184  0.6991371747628856  1.0000
  C   C26       1.0  0.5692094199728142  0.1470860240745291  0.7649000592996404  1.0000
  C   C27       1.0  0.6130638211671183  0.057156436049189185  0.7118024866888082  1.0000
  H   H10       1.0  0.9621167842364841  0.23101472555766778  0.6078530599736647  1.0000
  H   H11       1.0  0.7270769938612205  0.11897717185111367  0.5517778223254062  1.0000
  H   H12       1.0  0.7270748448316467  0.7017538780500973  0.5545454859191661  1.0000
  H   H13       1.0  0.9173903357187033  0.9043861685339164  0.5995342426029326  1.0000
  H   H14       1.0  0.8543141705462481  0.4599635596888413  0.583131463802574  1.0000
  H   H15       1.0  0.522212021635115  0.012481372384075318  0.4344829833463941  1.0000
  H   H16       1.0  0.4750639588196651  0.25788766136805386  0.7405848857674568  1.0000
  H   H17       1.0  0.5818394275087507  0.18438776351927855  0.8574325118949302  1.0000
  H   H18       1.0  0.6589067710844686  0.02484390265702041  0.765538219276495  1.0000
  C   C28       1.0  0.8266688195654133  0.4070834327873598  0.19645777823177246  1.0000
  C   C29       1.0  0.8484162573886409  0.2762613366199633  0.2056159228237302  1.0000
  C   C30       1.0  0.8601325907829314  0.21072208075102217  0.0930357153717527  1.0000
  C   C31       1.0  0.8483505100000971  0.27655557811996423  0.9703489907090077  1.0000
  C   C32       1.0  0.8265529964926991  0.4072876167498838  0.9591916279627286  1.0000
  C   C33       1.0  0.816011719776612  0.47189612249939716  0.07283962709330116  1.0000
  C   C34       1.0  0.8823999593211405  0.07217703250717378  0.10258571420162443  1.0000
  O   O2        1.0  0.8611955864985485  0.999283378283289  0.018145662745708835  1.0000
  C   C35       1.0  0.9287273229270803  0.016329677531301323  0.20782928173525206  1.0000
  C   C36       1.0  0.9231598274144233  0.8844563440725262  0.2530517429961505  1.0000
  C   C37       1.0  0.9671438020287714  0.8305140933871583  0.35117643928093933  1.0000
  F   F2        1.0  0.9610272065461551  0.7035437805800585  0.39478680995538684  1.0000
  C   C38       1.0  0.017406575513344125  0.9073031378848044  0.40427250797923553  1.0000
  C   C39       1.0  0.02396462249761444  0.03795446760558274  0.3589977862799252  1.0000
  C   C40       1.0  0.9801171563125458  0.09230623012916528  0.26094574105823765  1.0000
  H   H19       1.0  0.7846179759679952  0.6533641952806544  0.38653009662970694  1.0000
  H   H20       1.0  0.8555343444636372  0.22475019163089272  0.30052002197673566  1.0000
  H   H21       1.0  0.8568683875449777  0.2258621251888968  0.8834393892799128  1.0000
  H   H22       1.0  0.7992457427845929  0.5727499145191068  0.06497532060809652  1.0000
  H   H23       1.0  0.8176248318932243  0.45717959619572435  0.6274681599823015  1.0000
  H   H24       1.0  0.8843905555140836  0.8235837182904502  0.21319454039339503  1.0000
  H   H25       1.0  0.051477112678693704  0.8655252750672771  0.4801293461253522  1.0000
  H   H26       1.0  0.0632734156675745  0.09707029488382313  0.3995010506032233  1.0000
  H   H27       1.0  0.9869006201294881  0.19315612309237062  0.22575593587346243  1.0000
  Zn  Zn1       1.0  0.7512238013493269  0.40844340040152916  0.5768666185486668  1.0000
  Zn  Zn2       1.0  0.9019914510444115  0.40592716842132925  0.5787820857277348  1.0000
  C   C41       1.0  0.8265723891361637  0.4020751952176398  0.8150193410895497  1.0000
  C   C42       1.0  0.8266445099278825  0.4122969848454612  0.34062951132251706  1.0000
  C   C43       1.0  0.8266532707180316  0.6443855614483947  0.5726137552469379  1.0000
  C   C44       1.0  0.826563576592322  0.16998505912861805  0.5830351659849369  1.0000
  O   O3        1.0  0.8838518876410871  0.41308613765782387  0.3897417726386272  1.0000
  O   O4        1.0  0.8837941688860274  0.39937530069326344  0.7673605013450409  1.0000
  O   O5        1.0  0.883858710288447  0.5950439990914496  0.5716162657146464  1.0000
  O   O6        1.0  0.8837872948084318  0.21741744938276852  0.5854859102398451  1.0000
  O   O7        1.0  0.7694279061357084  0.5969531203001681  0.5701627933760709  1.0000
  O   O8        1.0  0.7693633650373835  0.4012859822481485  0.7659069595261714  1.0000
  O   O9        1.0  0.7694210840666477  0.4149967735361655  0.38828666943466295  1.0000
  O   O10       1.0  0.76935649121463  0.21932807599805737  0.5840309044045717  1.0000
