data_image0
_chemical_formula_structural       NC10NC5H10C7OC6H10C6SCOC6H10Zn2C4O8
_chemical_formula_sum              "N2 C45 H30 O10 S1 Zn2"
_cell_length_a       19.4436361288709
_cell_length_b       10.299379429549807
_cell_length_c       10.302041481415108
_cell_angle_alpha    85.5191038852169
_cell_angle_beta     89.70072369043199
_cell_angle_gamma    89.41578640036583

_space_group_name_H-M_alt    "P 1"
_space_group_IT_number       1

loop_
  _space_group_symop_operation_xyz
  'x, y, z'

loop_
  _atom_site_type_symbol
  _atom_site_label
  _atom_site_symmetry_multiplicity
  _atom_site_fract_x
  _atom_site_fract_y
  _atom_site_fract_z
  _atom_site_occupancy
  N   N1        1.0  0.6476640815397637  0.40989185231916814  0.5618909207417238  1.0000
  C   C1        1.0  0.5888282909958754  0.4197867485845528  0.5762682732959534  1.0000
  C   C2        1.0  0.515499189069921  0.432126982505433  0.5942523202466798  1.0000
  C   C3        1.0  0.47331373173143  0.40017803239210314  0.49961020709537496  1.0000
  C   C4        1.0  0.3974089447525446  0.4106141056628485  0.5049333921412913  1.0000
  C   C5        1.0  0.3576727994980897  0.3858085453068829  0.6119920253226088  1.0000
  C   C6        1.0  0.2815518522600659  0.3897321949591932  0.5990339843236521  1.0000
  C   C7        1.0  0.2409897556805238  0.4473474572023963  0.692763987907568  1.0000
  C   C8        1.0  0.16932602222516  0.45099095615827567  0.6822210132704045  1.0000
  C   C9        1.0  0.1372296459039661  0.39662300868046096  0.5782346435934391  1.0000
  C   C10       1.0  0.0634366626602676  0.4003278359460538  0.5675363978325636  1.0000
  N   N2        1.0  0.0041121092220727  0.4033063225841109  0.5589357175035092  1.0000
  C   C11       1.0  0.1770668774581242  0.33830041491623586  0.484888048407603  1.0000
  C   C12       1.0  0.24874703541767773  0.3346028213099572  0.4951793185693518  1.0000
  C   C13       1.0  0.385809604750098  0.3452765926478478  0.7430734203959224  1.0000
  C   C14       1.0  0.4444732371961421  0.3883760311078732  0.7902903604524911  1.0000
  C   C15       1.0  0.4886765802171208  0.4862787806832527  0.7159034565592706  1.0000
  H   H1        1.0  0.4954113881709606  0.3711068023666406  0.40933303748503325  1.0000
  H   H2        1.0  0.3727078458145704  0.4331590090821855  0.4117867027575244  1.0000
  H   H3        1.0  0.2648610051818097  0.49059823803311575  0.7735795672149239  1.0000
  H   H4        1.0  0.1389817754182326  0.4962697449208444  0.7551100800313806  1.0000
  H   H5        1.0  0.15272374832706842  0.2952451265582321  0.40440681062489303  1.0000
  H   H6        1.0  0.2784257359900238  0.28708015232654094  0.42298724514036623  1.0000
  H   H7        1.0  0.3548471516719923  0.2810221667597599  0.807329829488296  1.0000
  H   H8        1.0  0.45962622567226674  0.35425540556655166  0.8882162907449693  1.0000
  H   H9        1.0  0.4585648131443136  0.577011363987691  0.6906242305514987  1.0000
  H   H10       1.0  0.5319624933146072  0.5118330170244205  0.7789658363917396  1.0000
  C   C16       1.0  0.8258988842688624  0.02520693516215  0.5605672861765141  1.0000
  C   C17       1.0  0.8675878796556212  0.014510516765311676  0.671942649234907  1.0000
  C   C18       1.0  0.8879698734789679  0.8918879187579464  0.7289734907167453  1.0000
  C   C19       1.0  0.8675041716528299  0.7792900837575721  0.6716671217303851  1.0000
  C   C20       1.0  0.8258838878981827  0.7879811396604278  0.5602705684100897  1.0000
  C   C21       1.0  0.8051732724163445  0.9114116028287433  0.5055651330941078  1.0000
  C   C22       1.0  0.932587700027751  0.8804993587138229  0.8457752332751098  1.0000
  O   O1        1.0  0.976221304125898  0.7889026207062951  0.8577669593310135  1.0000
  C   C23       1.0  0.9277021643861375  0.9729206114287104  0.9489777473081726  1.0000
  C   C24       1.0  0.9865309187962923  0.0012744146596048722  0.02003689476467363  1.0000
  C   C25       1.0  0.9822675636052075  0.08707964627966192  0.1185427934452481  1.0000
  C   C26       1.0  0.9192628792964688  0.14452762659628204  0.14781702489754456  1.0000
  C   C27       1.0  0.8603286025531607  0.11586615007748935  0.07900235634224428  1.0000
  C   C28       1.0  0.8643157614463439  0.030145703632208143  0.9804110998858049  1.0000
  H   H11       1.0  0.7480971872537656  0.2527864209278219  0.3492276561695753  1.0000
  H   H12       1.0  0.8848874415429807  0.10176480200064164  0.7136269971856095  1.0000
  H   H13       1.0  0.8836035940485827  0.6846766218206906  0.7149612664462954  1.0000
  H   H14       1.0  0.773034522500709  0.918853636698529  0.41970251417113125  1.0000
  H   H15       1.0  0.8103739679912368  0.4639037044000768  0.516841178424976  1.0000
  H   H16       1.0  0.035872620289848944  0.9579247379092845  0.9985851360925564  1.0000
  H   H17       1.0  0.027857923423013187  0.10898932069381151  0.17224894807233204  1.0000
  H   H18       1.0  0.9160565856986496  0.21083160541477963  0.2241677616759623  1.0000
  H   H19       1.0  0.8114294050232448  0.15964572362379337  0.10244983064958801  1.0000
  H   H20       1.0  0.8177754400766156  0.007567625733973182  0.9298718693652106  1.0000
  C   C29       1.0  0.8259042766732808  0.4067230717959023  0.17913174440903745  1.0000
  C   C30       1.0  0.8574332198214224  0.5292462236490771  0.16790947203436923  1.0000
  C   C31       1.0  0.8734269917727485  0.5896804131167632  0.04536793050085319  1.0000
  C   C32       1.0  0.857498504288262  0.5288411311747403  0.932803676030157  1.0000
  C   C33       1.0  0.8258785117741739  0.40646497375301904  0.9417061495472367  1.0000
  C   C34       1.0  0.8102958280051019  0.34598463154720926  0.06543772446538765  1.0000
  S   S1        1.0  0.9143184993228967  0.7454670416310247  0.03244546530139658  1.0000
  C   C35       1.0  0.999045445188895  0.6740968630236539  0.03433860762883012  1.0000
  O   O2        1.0  0.02596278249969375  0.6504254340844797  0.9270642003802556  1.0000
  C   C36       1.0  0.03695631774587049  0.6420519142948238  0.1575610114431556  1.0000
  C   C37       1.0  0.09797217156464222  0.56719691086398  0.15727611926676754  1.0000
  C   C38       1.0  0.1338206521323817  0.5356360280655053  0.2729430134973181  1.0000
  C   C39       1.0  0.10938337115790264  0.5784375343905452  0.39006670362959395  1.0000
  C   C40       1.0  0.04910674472651877  0.6531200601264786  0.3917257957936793  1.0000
  C   C41       1.0  0.01305296403657441  0.6850588926302204  0.27635986399885315  1.0000
  H   H21       1.0  0.7663746581311456  0.17590338058600063  0.40759293889795156  1.0000
  H   H22       1.0  0.8697878136407999  0.5779486261436209  0.254102338206583  1.0000
  H   H23       1.0  0.8701446294148215  0.5772065977016829  0.8387085541189729  1.0000
  H   H24       1.0  0.7859908568124283  0.2515277655657264  0.07316872869457258  1.0000
  H   H25       1.0  0.8140444003652374  0.35976421457424146  0.617763254585677  1.0000
  H   H26       1.0  0.11784025247166752  0.5323699093010525  0.06780615948739577  1.0000
  H   H27       1.0  0.18057470071597637  0.47778439361420477  0.27173055622929776  1.0000
  H   H28       1.0  0.137196343263837  0.553871085858364  0.4795075473907242  1.0000
  H   H29       1.0  0.03030668650320467  0.6865402099698266  0.48254147891466403  1.0000
  H   H30       1.0  0.9668208472500184  0.7438429965703124  0.2807948860496372  1.0000
  Zn  Zn1       1.0  0.7505272837089441  0.4079879365707082  0.5610456248028637  1.0000
  Zn  Zn2       1.0  0.9012488984155836  0.4051996263908386  0.5597916964597145  1.0000
  C   C42       1.0  0.8258819313099561  0.4013398115019058  0.797565258553939  1.0000
  C   C43       1.0  0.8258958966533808  0.4118493596874082  0.32327217581747614  1.0000
  C   C44       1.0  0.8258833535294297  0.6438023873407988  0.5551526281990704  1.0000
  C   C45       1.0  0.8258944230315012  0.16938522437914894  0.5656848764309885  1.0000
  O   O3        1.0  0.8830911516424538  0.4125059734654497  0.37117116426995866  1.0000
  O   O4        1.0  0.8830808944543604  0.39856595515890647  0.7487141941181354  1.0000
  O   O5        1.0  0.8830812718116136  0.5943575653140407  0.5529642858866022  1.0000
  O   O6        1.0  0.8830907228572326  0.2167143735855106  0.5669209755719584  1.0000
  O   O7        1.0  0.7686854078334052  0.596473190328966  0.5539163461116943  1.0000
  O   O8        1.0  0.7686850304446683  0.4006831405961273  0.7496661845056576  1.0000
  O   O9        1.0  0.7686952877321822  0.4146231141714194  0.37212159360862773  1.0000
  O   O10       1.0  0.7686948589410392  0.2188315049692151  0.5678715022612353  1.0000
