data_image0
_chemical_formula_structural       NC11NC3H8C6SCOC6H10C7OC6H10Zn2C4O8
_chemical_formula_sum              "N2 C44 H28 S1 O10 Zn2"
_cell_length_a       17.807433833752565
_cell_length_b       10.302038109246572
_cell_length_c       10.299382801718286
_cell_angle_alpha    85.57853228507349
_cell_angle_beta     88.5048620642858
_cell_angle_gamma    90.7032530140906

_space_group_name_H-M_alt    "P 1"
_space_group_IT_number       1

loop_
  _space_group_symop_operation_xyz
  'x, y, z'

loop_
  _atom_site_type_symbol
  _atom_site_label
  _atom_site_symmetry_multiplicity
  _atom_site_fract_x
  _atom_site_fract_y
  _atom_site_fract_z
  _atom_site_occupancy
  N   N1        1.0  0.7079673849522141  0.43786723385498316  0.5348275091832759  1.0000
  C   C1        1.0  0.657128441458169  0.4031609821395432  0.6013858299568122  1.0000
  C   C2        1.0  0.5938796723183003  0.3599892652339429  0.6841758870295147  1.0000
  C   C3        1.0  0.6055709879894494  0.29647668683661643  0.8068869377983701  1.0000
  C   C4        1.0  0.5442303712084285  0.25498392756220234  0.8873932651413063  1.0000
  C   C5        1.0  0.47104390763959114  0.2766906702771925  0.8458293012151348  1.0000
  C   C6        1.0  0.4583759172808641  0.3403576786862661  0.7226580705430281  1.0000
  C   C7        1.0  0.3806220254438465  0.363393713784975  0.6783136092806314  1.0000
  C   C8        1.0  0.3618605801204762  0.3465014930053767  0.5487305308247521  1.0000
  C   C9        1.0  0.2886441753954271  0.3681695087022283  0.5071224903241536  1.0000
  C   C10       1.0  0.2332463617545427  0.40704804598622535  0.594277290199466  1.0000
  C   C11       1.0  0.1578936242541608  0.4293741199272898  0.5513080314526992  1.0000
  N   N2        1.0  0.09731539582584971  0.4473226247196309  0.5167638747102092  1.0000
  C   C12       1.0  0.2513163865667282  0.42415069590777277  0.7233292584656867  1.0000
  C   C13       1.0  0.3244799732041978  0.4024478056913474  0.7651927251021033  1.0000
  C   C14       1.0  0.5205738418910718  0.38184587714124474  0.64216815853348  1.0000
  H   H1        1.0  0.6620270141187038  0.2790724881024311  0.8402504541446141  1.0000
  H   H2        1.0  0.5534007418816685  0.20556083718584883  0.9821236589104831  1.0000
  H   H3        1.0  0.4243858089087785  0.2421545279723507  0.9092643449099234  1.0000
  H   H4        1.0  0.40354642963181236  0.3148544351057325  0.48000973879660913  1.0000
  H   H5        1.0  0.2752196200258042  0.3542735628328917  0.40708576523327267  1.0000
  H   H6        1.0  0.20891362556425572  0.45457492146290135  0.7915351265652093  1.0000
  H   H7        1.0  0.3373764204800349  0.4178887610163342  0.8650468883777447  1.0000
  H   H8        1.0  0.5121021574434743  0.43263104082021564  0.5476722523724222  1.0000
  C   C15       1.0  0.9025738335718942  0.06131484190993386  0.5257586434250197  1.0000
  C   C16       1.0  0.8383649307831085  0.06451016989136171  0.44921820882402064  1.0000
  C   C17       1.0  0.8067707254445601  0.9491500155075507  0.4106345489891612  1.0000
  C   C18       1.0  0.8386065816104539  0.8293834299569789  0.4491529914792589  1.0000
  C   C19       1.0  0.9027161475418806  0.8238652127357384  0.5258436149842154  1.0000
  C   C20       1.0  0.934407836420287  0.9404769138973064  0.5636618634451858  1.0000
  S   S1        1.0  0.7252690691918995  0.9546864325740516  0.3118069459472719  1.0000
  C   C21       1.0  0.7805311495823207  0.9644954953879551  0.16282144284663147  1.0000
  O   O1        1.0  0.7986548435727745  0.8596592018664824  0.11563065962227581  1.0000
  C   C22       1.0  0.8053208977968309  0.09125140989012848  0.09617392709588812  1.0000
  C   C23       1.0  0.8584568773130941  0.09486204652787822  0.9922024003102603  1.0000
  C   C24       1.0  0.882614089733825  0.21377330465119693  0.9293586809407577  1.0000
  C   C25       1.0  0.8540419763687335  0.330323560179385  0.9691854551846197  1.0000
  C   C26       1.0  0.8011321990970077  0.3281907462670728  0.07179344644087626  1.0000
  C   C27       1.0  0.7767245132801656  0.20957710308457145  0.1349689582941498  1.0000
  H   H9        1.0  0.023513054872936978  0.26259396819485237  0.6702011903220173  1.0000
  H   H10       1.0  0.8128113849849007  0.1564058054696511  0.4191280314891994  1.0000
  H   H11       1.0  0.8132951624833348  0.7410113205346888  0.41856305081987233  1.0000
  H   H12       1.0  0.9839087009384491  0.9370932341018404  0.622666104780597  1.0000
  H   H13       1.0  0.9272216723626653  0.4944557858549942  0.5546731974883479  1.0000
  H   H14       1.0  0.8817027791510972  0.005856228115360906  0.9598264105789625  1.0000
  H   H15       1.0  0.923610491975387  0.21550787787689996  0.8497592406578844  1.0000
  H   H16       1.0  0.8728297986849963  0.4222753192754898  0.920439623272721  1.0000
  H   H17       1.0  0.7788712472732655  0.41860304357886724  0.10236308976616582  1.0000
  H   H18       1.0  0.735288248002689  0.2112193448806674  0.21345647052469974  1.0000
  C   C28       1.0  0.9027199069275271  0.4425186345692165  0.1444278429786603  1.0000
  C   C29       1.0  0.9816464833519687  0.4452986401863708  0.13946251890777805  1.0000
  C   C30       1.0  0.02145453271769826  0.44521306668571325  0.019899868972297785  1.0000
  C   C31       1.0  0.9814634160713247  0.44532222442344827  0.9042254469322946  1.0000
  C   C32       1.0  0.9025700189899969  0.4426614151504664  0.9071743487171631  1.0000
  C   C33       1.0  0.8636558374305746  0.4409304136748149  0.027820100798293224  1.0000
  C   C34       1.0  0.10479099637616596  0.4495320205558351  0.014405284760792503  1.0000
  O   O2        1.0  0.13790392136751728  0.5110305824977741  0.9183494542364081  1.0000
  C   C35       1.0  0.15056268738665168  0.38407626522731064  0.1177798932660874  1.0000
  C   C36       1.0  0.22118606000410157  0.4362391337701239  0.14561082032276396  1.0000
  C   C37       1.0  0.2651261516280643  0.3743873433163485  0.2418190885727105  1.0000
  C   C38       1.0  0.23936273571889766  0.25948533689407594  0.31036459075618184  1.0000
  C   C39       1.0  0.1697353089189837  0.2059000369370636  0.2824642644766848  1.0000
  C   C40       1.0  0.125581130462612  0.2673680061399948  0.18636794396088519  1.0000
  H   H19       1.0  0.7537740176909629  0.4392835717467065  0.3609629203490783  1.0000
  H   H20       1.0  0.012253124747886313  0.4489916992821288  0.22864173242924735  1.0000
  H   H21       1.0  0.0120772512562477  0.44623699585812493  0.8118536661039695  1.0000
  H   H22       1.0  0.8028093938922526  0.4387880373257462  0.030843756333034156  1.0000
  H   H23       1.0  0.8722628616413161  0.44274396903583035  0.5807654990558868  1.0000
  H   H24       1.0  0.2420601794982693  0.525397978921893  0.09371753950266615  1.0000
  H   H25       1.0  0.3192121881849377  0.4155750746414866  0.263187264736078  1.0000
  H   H26       1.0  0.2734819182635406  0.21169825092139072  0.38471919939809385  1.0000
  H   H27       1.0  0.1500839712310884  0.11631508720114314  0.3349295219988109  1.0000
  H   H28       1.0  0.0723965815553953  0.2229207807601774  0.16477132835310893  1.0000
  Zn  Zn1       1.0  0.8203248081904707  0.44059238298156544  0.529622218687742  1.0000
  Zn  Zn2       1.0  0.984957953766027  0.4445868604539054  0.5219797501575696  1.0000
  C   C41       1.0  0.9025957325446009  0.437461905406755  0.7629984610018863  1.0000
  C   C42       1.0  0.9026888274813705  0.44771901991041974  0.2886035520383077  1.0000
  C   C43       1.0  0.9026863760113021  0.6797258883344539  0.5206524809139255  1.0000
  C   C44       1.0  0.902598127532203  0.20545347569315053  0.5309496037997592  1.0000
  O   O3        1.0  0.965155816631447  0.4509745356974024  0.3340899594509552  1.0000
  O   O4        1.0  0.9650814914253716  0.43723712603086295  0.7117112228501032  1.0000
  O   O5        1.0  0.9651538446802445  0.6328683359091511  0.5160151685391359  1.0000
  O   O6        1.0  0.9650834072192984  0.25534333372590323  0.5297859189950338  1.0000
  O   O7        1.0  0.8401992985559882  0.6298359083478611  0.5218160524514459  1.0000
  O   O8        1.0  0.8401269456023701  0.434206258397436  0.7175120376900923  1.0000
  O   O9        1.0  0.8402012711567451  0.447943622527482  0.3398892128650548  1.0000
  O   O10       1.0  0.8401288617206611  0.25231241128748705  0.5355852697771908  1.0000
