data_image0
_chemical_formula_structural       NC8NC6H8C7OC6H10C7OC3OC4H12Zn2C4O8
_chemical_formula_sum              "N2 C45 H30 O11 Zn2"
_cell_length_a       17.457602349358154
_cell_length_b       10.299379429549807
_cell_length_c       10.299374482448636
_cell_angle_alpha    85.52536088050722
_cell_angle_beta     92.85818479457473
_cell_angle_gamma    91.68701110263541

_space_group_name_H-M_alt    "P 1"
_space_group_IT_number       1

loop_
  _space_group_symop_operation_xyz
  'x, y, z'

loop_
  _atom_site_type_symbol
  _atom_site_label
  _atom_site_symmetry_multiplicity
  _atom_site_fract_x
  _atom_site_fract_y
  _atom_site_fract_z
  _atom_site_occupancy
  N   N1        1.0  0.7226490989621739  0.45323924674833216  0.6259080147540945  1.0000
  C   C1        1.0  0.6615741494346785  0.40731412214656726  0.6153100206144912  1.0000
  C   C2        1.0  0.5855943272863083  0.35018897954009476  0.602135655836388  1.0000
  C   C3        1.0  0.5270508636907273  0.3903350260008649  0.6770192480965178  1.0000
  C   C4        1.0  0.4525089634291755  0.3353281119633926  0.6644585062873285  1.0000
  C   C5        1.0  0.3903737304850481  0.37771636712126644  0.7437631205928661  1.0000
  C   C6        1.0  0.31583705280193736  0.3961991224205441  0.6879911828523826  1.0000
  C   C7        1.0  0.2572935702752721  0.43616120770880396  0.7629828030549792  1.0000
  C   C8        1.0  0.18131913681215162  0.45525037949206193  0.7049951195206323  1.0000
  N   N2        1.0  0.12024860892662949  0.47059169353179175  0.6583731755049356  1.0000
  C   C9        1.0  0.2727945026538482  0.45788357026394344  0.8942547945086667  1.0000
  C   C10       1.0  0.3465463955896947  0.4397897295110351  0.9504141866275371  1.0000
  C   C11       1.0  0.4050781839681265  0.4000075984343736  0.8758802272199131  1.0000
  C   C12       1.0  0.4377994544229467  0.23949803934271086  0.5755814864560074  1.0000
  C   C13       1.0  0.49633111923859147  0.1996305918713468  0.5010977971809096  1.0000
  C   C14       1.0  0.570088148909575  0.254749755681984  0.5142084567335474  1.0000
  H   H1        1.0  0.5393808423251262  0.46551740470112146  0.7436219944613276  1.0000
  H   H2        1.0  0.3035113896093265  0.3812525050931832  0.5859703511746261  1.0000
  H   H3        1.0  0.22792189184612544  0.48875388558047317  0.9530798255881727  1.0000
  H   H4        1.0  0.358358383205475  0.4562941799863216  0.052061140565535347  1.0000
  H   H5        1.0  0.4615555355301135  0.3850039337833999  0.9219935392969139  1.0000
  H   H6        1.0  0.3813177767403949  0.19416262305410803  0.5649471440498359  1.0000
  H   H7        1.0  0.4845151492395573  0.12556502167937889  0.43329626707670865  1.0000
  H   H8        1.0  0.6149607274289901  0.22300957340349137  0.4558949017660139  1.0000
  C   C15       1.0  0.9214608631038425  0.08052403850166678  0.6422956470920613  1.0000
  C   C16       1.0  0.9679461906235213  0.0726388404333489  0.7578402777009652  1.0000
  C   C17       1.0  0.9906727558982648  0.9513909303474581  0.8169101130129219  1.0000
  C   C18       1.0  0.9678528597039625  0.8374127573812384  0.7575563662905656  1.0000
  C   C19       1.0  0.9214441795538578  0.8432972052885024  0.6419973683953233  1.0000
  C   C20       1.0  0.8983507083388188  0.9653311507799901  0.5852208375426597  1.0000
  C   C21       1.0  0.04042423408760021  0.9430108437096414  0.9381734605944669  1.0000
  O   O1        1.0  0.08909344637695837  0.8543456759029047  0.9545040110009402  1.0000
  C   C22       1.0  0.034959331919153236  0.0351146342605233  0.04091508152594292  1.0000
  C   C23       1.0  0.10056915500298902  0.06742656891465715  0.11783710449362583  1.0000
  C   C24       1.0  0.09579896073770877  0.15295563841686066  0.2159428182970743  1.0000
  C   C25       1.0  0.025516190013803453  0.2061753848751584  0.23896311249407431  1.0000
  C   C26       1.0  0.9597883286089947  0.1735489216798478  0.16427561730408213  1.0000
  C   C27       1.0  0.9642504530913412  0.08808607983538708  0.0660570791534808  1.0000
  H   H9        1.0  0.8347085745266327  0.3028567512507454  0.4231743297717421  1.0000
  H   H10       1.0  0.987236746496078  0.16105922234981307  0.8012536543908009  1.0000
  H   H11       1.0  0.9858044836300691  0.7438849594343545  0.8024606628746289  1.0000
  H   H12       1.0  0.8625143852776584  0.9706059673161347  0.4961440595707063  1.0000
  H   H13       1.0  0.904150134820055  0.5181736817464594  0.5970163744651202  1.0000
  H   H14       1.0  0.15561042252913326  0.027388357498202787  0.10128342668299228  1.0000
  H   H15       1.0  0.146644629452372  0.17793259472761402  0.27419218496301256  1.0000
  H   H16       1.0  0.02192838638254213  0.27227190742026464  0.315013427320993  1.0000
  H   H17       1.0  0.9052403543162112  0.2140469531974898  0.18286945891809026  1.0000
  H   H18       1.0  0.9123446812854977  0.06237724925990018  0.010880991517348337  1.0000
  C   C28       1.0  0.9215235878139223  0.46200121438848707  0.26076974469961733  1.0000
  C   C29       1.0  0.0016592084135049756  0.4801637608531961  0.26493596977672573  1.0000
  C   C30       1.0  0.04198045371282677  0.490791690318074  0.1497410221666624  1.0000
  C   C31       1.0  0.0014758288009559806  0.4800918830623415  0.029682170409506048  1.0000
  C   C32       1.0  0.9213814394377772  0.4618200071823966  0.023523233400900345  1.0000
  C   C33       1.0  0.8818470466611428  0.4532205003806955  0.13960912839652795  1.0000
  C   C34       1.0  0.12668820369401557  0.5086154195290291  0.15411314533689158  1.0000
  O   O2        1.0  0.16432859222727236  0.45671296611529155  0.07136030400301352  1.0000
  C   C35       1.0  0.16869158307584953  0.5853343676896887  0.2522815175806128  1.0000
  C   C36       1.0  0.24354280832648567  0.5518810913232195  0.29657191374787595  1.0000
  C   C37       1.0  0.28452027009741765  0.6239376646784152  0.38809383001100506  1.0000
  O   O3        1.0  0.3587485092372271  0.5852825383948161  0.42946432716516303  1.0000
  C   C38       1.0  0.40681524175986494  0.6492546483576611  0.521757358162106  1.0000
  C   C39       1.0  0.2502220926576728  0.7318338407805771  0.4351653582306747  1.0000
  C   C40       1.0  0.1762665773241896  0.7666594999531036  0.39043702613883924  1.0000
  C   C41       1.0  0.13573192219377672  0.69438922906024  0.29919238958348804  1.0000
  H   H19       1.0  0.7704290039283039  0.42574433559026037  0.46039497740440605  1.0000
  H   H20       1.0  0.03290570280938199  0.48461961696803746  0.3580774139215106  1.0000
  H   H21       1.0  0.0325452849142962  0.48730376961446376  0.9408231904904509  1.0000
  H   H22       1.0  0.8200683380025485  0.43921765255648215  0.13559355814462148  1.0000
  H   H23       1.0  0.8906851188713374  0.4537203679593944  0.6937906410909984  1.0000
  H   H24       1.0  0.2701508546400806  0.4687252999380269  0.2608988491600639  1.0000
  H   H25       1.0  0.4620405861437611  0.5983045094984247  0.5362461250220436  1.0000
  H   H26       1.0  0.37911184502633244  0.6462445473541272  0.616730700927747  1.0000
  H   H27       1.0  0.41860787150937595  0.7517810481135265  0.485019012239325  1.0000
  H   H28       1.0  0.28028481620024626  0.7895869082109175  0.5057890488423353  1.0000
  H   H29       1.0  0.15037904546468606  0.8503358151570424  0.4261976634822582  1.0000
  H   H30       1.0  0.07899910469664162  0.7246419406733804  0.2643230803927821  1.0000
  Zn  Zn1       1.0  0.8373877276269096  0.4582433033658575  0.6352842588455718  1.0000
  Zn  Zn2       1.0  0.005509964263548772  0.46557698593598107  0.649007568323752  1.0000
  C   C42       1.0  0.9214067173958508  0.4566802088741564  0.8793484116762458  1.0000
  C   C43       1.0  0.9214928103245968  0.4671417991979141  0.40494369217947157  1.0000
  C   C44       1.0  0.9214443444011327  0.6991178894640493  0.6368781554725211  1.0000
  C   C45       1.0  0.9214551259721835  0.2247025556938287  0.6474140135506135  1.0000
  O   O4        1.0  0.9852839938691959  0.47164445465733773  0.45853771264195653  1.0000
  O   O5        1.0  0.985216421465811  0.45774266910369943  0.8361696921013284  1.0000
  O   O6        1.0  0.98524594542188  0.6535141243847409  0.6403731739651348  1.0000
  O   O7        1.0  0.9852544125623386  0.27587300618771327  0.6543341287150088  1.0000
  O   O8        1.0  0.8576432219562528  0.6479472806129145  0.6299576937643907  1.0000
  O   O9        1.0  0.8576136979754483  0.4521773857448548  0.8257541420432437  1.0000
  O   O10       1.0  0.8576812707218195  0.466079126412988  0.4481206011728993  1.0000
  O   O11       1.0  0.8576516893938835  0.27030766863073663  0.6439171146191696  1.0000
