data_image0
_chemical_formula_structural       NC9NC5H8C7OC3OC4H12C7OC3OC4H12Zn2C4O8
_chemical_formula_sum              "N2 C46 H32 O12 Zn2"
_cell_length_a       17.807436237873137
_cell_length_b       10.299371110280156
_cell_length_c       10.299374482448636
_cell_angle_alpha    85.56563777426875
_cell_angle_beta     89.37372472773512
_cell_angle_gamma    88.40331171880233

_space_group_name_H-M_alt    "P 1"
_space_group_IT_number       1

loop_
  _space_group_symop_operation_xyz
  'x, y, z'

loop_
  _atom_site_type_symbol
  _atom_site_label
  _atom_site_symmetry_multiplicity
  _atom_site_fract_x
  _atom_site_fract_y
  _atom_site_fract_z
  _atom_site_occupancy
  N   N1        1.0  0.7078594488073122  0.3880810727153927  0.5575084776600265  1.0000
  C   C1        1.0  0.6472692732327013  0.35289390300417356  0.546473062989683  1.0000
  C   C2        1.0  0.5719017542449941  0.3091249389011237  0.5327462053694616  1.0000
  C   C3        1.0  0.5538201035960953  0.23773383707978835  0.42771674935482795  1.0000
  C   C4        1.0  0.4806421320579788  0.19512606848236747  0.4143061887602104  1.0000
  C   C5        1.0  0.4244970485654814  0.2235318799872732  0.5058925125918448  1.0000
  C   C6        1.0  0.3467277289799651  0.17836569323379448  0.49172267335057485  1.0000
  C   C7        1.0  0.2845574633647562  0.2601158461434787  0.5176883097923326  1.0000
  C   C8        1.0  0.2112371575462922  0.21730503665125744  0.5042913670491209  1.0000
  C   C9        1.0  0.1480170923203192  0.3017464549047866  0.5306217666843369  1.0000
  N   N2        1.0  0.0972011475301149  0.3696315129378658  0.551790679638561  1.0000
  C   C10       1.0  0.1995035429357134  0.09248610043967576  0.46490335602689115  1.0000
  C   C11       1.0  0.2608164384290149  0.010722097159548749  0.4389293252005595  1.0000
  C   C12       1.0  0.3340172970482589  0.05313841221086513  0.4521235975162661  1.0000
  C   C13       1.0  0.4432701290771886  0.2954172976508096  0.6111413623224093  1.0000
  C   C14       1.0  0.5165009752230209  0.3378347074969654  0.6243962061321808  1.0000
  H   H1        1.0  0.596225178017028  0.21526493479219377  0.3559940773788346  1.0000
  H   H2        1.0  0.46773765107966453  0.1414627116833551  0.33136556717036614  1.0000
  H   H3        1.0  0.293062558480313  0.35757400940573447  0.5465971128443265  1.0000
  H   H4        1.0  0.1430359471415921  0.058452515284614925  0.45429736037649904  1.0000
  H   H5        1.0  0.2516133271991496  0.9140843045868178  0.40882032079509  1.0000
  H   H6        1.0  0.3806529049654697  0.9873978167101666  0.43305378782108295  1.0000
  H   H7        1.0  0.4015816264457093  0.317346857580201  0.6841584147822477  1.0000
  H   H8        1.0  0.5299341582919022  0.3927188844216005  0.7062955430007272  1.0000
  C   C15       1.0  0.9024832579528698  0.9974871643601192  0.5545354851383322  1.0000
  C   C16       1.0  0.8938522416162169  0.007217466813772999  0.4186742455578649  1.0000
  C   C17       1.0  0.8886503606211529  0.894978415157093  0.35033025120552996  1.0000
  C   C18       1.0  0.8938894744470445  0.771947744136779  0.41898479134460653  1.0000
  C   C19       1.0  0.902584517788816  0.7602151269644855  0.5547748554339462  1.0000
  C   C20       1.0  0.906634397734483  0.8735938609511323  0.6218050364847929  1.0000
  C   C21       1.0  0.8803201068568388  0.9050878161370796  0.20670251457992972  1.0000
  O   O1        1.0  0.9111276297326002  0.818605192131884  0.14222578358814886  1.0000
  C   C22       1.0  0.8370319112334573  0.013225974139159824  0.13622588614600661  1.0000
  C   C23       1.0  0.8580541363329145  0.05742162542318585  0.008771906725447476  1.0000
  C   C24       1.0  0.8174318179365678  0.1583772008344171  0.9399862034864532  1.0000
  O   O2        1.0  0.8414403801315808  0.19907843604418396  0.8135331003353952  1.0000
  C   C25       1.0  0.8056449659451569  0.30028011805504407  0.7326220654184827  1.0000
  C   C26       1.0  0.7544009828428103  0.21520818446581558  0.9994011858354073  1.0000
  C   C27       1.0  0.7326077462120723  0.17075960983226013  0.12534939696699632  1.0000
  C   C28       1.0  0.7733635219056998  0.07007919918117  0.1933809467295371  1.0000
  H   H9        1.0  0.9199173543876344  0.18641024681832907  0.8106778558927232  1.0000
  H   H10       1.0  0.8920017591787808  0.10225286567482006  0.36567057953916593  1.0000
  H   H11       1.0  0.8904450294056748  0.6852638153132757  0.366311808613087  1.0000
  H   H12       1.0  0.9132887624517804  0.8652886865801999  0.7265440902363163  1.0000
  H   H13       1.0  0.9065496766843307  0.42823110435017525  0.6068045949135212  1.0000
  H   H14       1.0  0.9066361707741757  0.014234821663871022  0.9626846406908411  1.0000
  H   H15       1.0  0.836308251330089  0.3119417645155811  0.6382988765201425  1.0000
  H   H16       1.0  0.8067431495419244  0.39367300089755464  0.7796259947039008  1.0000
  H   H17       1.0  0.7467735436187668  0.2748414474546088  0.7137219953074987  1.0000
  H   H18       1.0  0.7217782700257186  0.2932660339160187  0.948990725071206  1.0000
  H   H19       1.0  0.6837420031560292  0.2141215681837625  0.17021907135483594  1.0000
  H   H20       1.0  0.7546049941927276  0.035795711008488995  0.2900371504214221  1.0000
  C   C29       1.0  0.9026034904715668  0.37893533277102365  0.17327163058705786  1.0000
  C   C30       1.0  0.9810770208832321  0.38988114944396957  0.1697524483652153  1.0000
  C   C31       1.0  0.02056219418894023  0.3968777993642576  0.05069153792889991  1.0000
  C   C32       1.0  0.9808974400674129  0.38982578802700885  0.9345162147178527  1.0000
  C   C33       1.0  0.9024642674208723  0.3787669360668744  0.9360386473307405  1.0000
  C   C34       1.0  0.8637499117772722  0.37372773437304785  0.05591634215556396  1.0000
  C   C35       1.0  0.10351281161076065  0.40707313322867456  0.04693879739497886  1.0000
  O   O3        1.0  0.1403631852972398  0.35178462053596427  0.9605335861592712  1.0000
  C   C36       1.0  0.14465536015274272  0.48000529110720525  0.14112605760881425  1.0000
  C   C37       1.0  0.21794632589779628  0.4398142661842055  0.17820241638813572  1.0000
  C   C38       1.0  0.2580835524166416  0.5081767110189501  0.2658384982903259  1.0000
  O   O4        1.0  0.33076367320210287  0.46284024998525486  0.300051149299176  1.0000
  C   C39       1.0  0.377841638086327  0.5224803902837554  0.38777163910346824  1.0000
  C   C40       1.0  0.22451458470697716  0.6191545763573485  0.31628067748838595  1.0000
  C   C41       1.0  0.15210093126801905  0.6606372480219034  0.2786813014649534  1.0000
  C   C42       1.0  0.1123972787348948  0.5920212472850859  0.19127981119959103  1.0000
  H   H21       1.0  0.7546424440944127  0.3562856195261781  0.38738617686227417  1.0000
  H   H22       1.0  0.01167502794457631  0.39152321789585254  0.25989535181265166  1.0000
  H   H23       1.0  0.011322511864558127  0.39423965913470926  0.8426776378870593  1.0000
  H   H24       1.0  0.8032525530875932  0.3652884580057669  0.05782565882588231  1.0000
  H   H25       1.0  0.8724044420793591  0.37343176856401206  0.6092491830897515  1.0000
  H   H26       1.0  0.24398874607101106  0.3542677098041418  0.1399148333997593  1.0000
  H   H27       1.0  0.4319117710218574  0.466560739127474  0.3969194191815353  1.0000
  H   H28       1.0  0.35071334050484926  0.5219649587765385  0.4854041734139838  1.0000
  H   H29       1.0  0.38940507137897207  0.6239386731351504  0.3499724905495203  1.0000
  H   H30       1.0  0.25396163146917905  0.674197182269886  0.3840569987639457  1.0000
  H   H31       1.0  0.1267641364545249  0.7466394193700059  0.3169876072927651  1.0000
  H   H32       1.0  0.05684780095980768  0.627380475353466  0.16188175851367204  1.0000
  Zn  Zn1       1.0  0.820215049791313  0.3827534613513459  0.5558659546550231  1.0000
  Zn  Zn2       1.0  0.984845524994947  0.37494853576940734  0.5534438763426381  1.0000
  C   C43       1.0  0.9024882278221101  0.37362517639941606  0.7918577854339086  1.0000
  C   C44       1.0  0.9025741449180821  0.38407837408346235  0.3174521471002858  1.0000
  C   C45       1.0  0.9025624488420558  0.6160446233956676  0.5495542815725525  1.0000
  C   C46       1.0  0.9024998675014947  0.14165736943240592  0.5597557205397716  1.0000
  O   O5        1.0  0.9650407028909777  0.3828368314053463  0.3649212776726538  1.0000
  O   O6        1.0  0.9649723911770542  0.36894198151441926  0.7425499792977077  1.0000
  O   O7        1.0  0.9650314831309903  0.564698790406335  0.5468881984069074  1.0000
  O   O8        1.0  0.9649815547788181  0.1870800344884429  0.5605829620144609  1.0000
  O   O9        1.0  0.8400789638271421  0.570621965297164  0.548726869802906  1.0000
  O   O10       1.0  0.8400198720895478  0.37486671672490535  0.7443885819352827  1.0000
  O   O11       1.0  0.8400881841324119  0.3887615217021927  0.36675831883476473  1.0000
  O   O12       1.0  0.840029035998176  0.19300471547512998  0.5624201005452709  1.0000
