data_image0
_chemical_formula_structural       NC8NC6H8C7OC3OC4H12C7OC4NC3H9Zn2C4O8
_chemical_formula_sum              "N3 C46 H29 O11 Zn2"
_cell_length_a       17.457602349358154
_cell_length_b       10.299371110280156
_cell_length_c       10.299375074045738
_cell_angle_alpha    85.5574175690685
_cell_angle_beta     92.86983099302364
_cell_angle_gamma    91.70033728131911

_space_group_name_H-M_alt    "P 1"
_space_group_IT_number       1

loop_
  _space_group_symop_operation_xyz
  'x, y, z'

loop_
  _atom_site_type_symbol
  _atom_site_label
  _atom_site_symmetry_multiplicity
  _atom_site_fract_x
  _atom_site_fract_y
  _atom_site_fract_z
  _atom_site_occupancy
  N   N1        1.0  0.7227159377217686  0.45336131830470006  0.6269228440176109  1.0000
  C   C1        1.0  0.6616325039107676  0.40743982951504876  0.6162916628705897  1.0000
  C   C2        1.0  0.5856421293388095  0.3503192082661537  0.6030760177531438  1.0000
  C   C3        1.0  0.527113822379489  0.39045297424000003  0.6779899770225022  1.0000
  C   C4        1.0  0.45256177574066864  0.33545039655148945  0.6653894881550617  1.0000
  C   C5        1.0  0.39044257410318994  0.37782565223397535  0.74472617043936  1.0000
  C   C6        1.0  0.3159022293884491  0.3963152721776779  0.68896634815738  1.0000
  C   C7        1.0  0.2573738872623422  0.4362650706694582  0.7639882055427794  1.0000
  C   C8        1.0  0.1813956209374736  0.45536138585097263  0.7060130269984246  1.0000
  N   N2        1.0  0.120322010444215  0.47070844346247376  0.6594011324178322  1.0000
  C   C9        1.0  0.2728937253273839  0.4579681997967531  0.8952785036928226  1.0000
  C   C10       1.0  0.3466493922588965  0.43986742231426645  0.9514260675483417  1.0000
  C   C11       1.0  0.4051661225660201  0.40009750606460015  0.8768620095989925  1.0000
  C   C12       1.0  0.4378266880711491  0.2396371714291632  0.576441838572717  1.0000
  C   C13       1.0  0.4963432873057941  0.19978193583506276  0.5019279905492877  1.0000
  C   C14       1.0  0.5701105459003496  0.2548966817228864  0.5150784891053741  1.0000
  H   H1        1.0  0.5394634998918796  0.4656225688633524  0.7446480705660772  1.0000
  H   H2        1.0  0.3035621781028677  0.381383511250734  0.5869326783790334  1.0000
  H   H3        1.0  0.2280329158673682  0.4888288995722152  0.9541269111884925  1.0000
  H   H4        1.0  0.3584759692606043  0.45635699478620206  0.0530869701718083  1.0000
  H   H5        1.0  0.46164654992824306  0.3850881524724852  0.9229655041152096  1.0000
  H   H6        1.0  0.38133661470973335  0.19430536818512723  0.5657747317380901  1.0000
  H   H7        1.0  0.4845076529504338  0.12572926333956036  0.4340718902072809  1.0000
  H   H8        1.0  0.6149712463790615  0.2231660850586561  0.4567409438464789  1.0000
  C   C15       1.0  0.9214709239909216  0.08066141341678179  0.6430432563325765  1.0000
  C   C16       1.0  0.9126406608110073  0.08961703126467069  0.5063324675931327  1.0000
  C   C17       1.0  0.9073202914691376  0.9769092020828977  0.4374767329788103  1.0000
  C   C18       1.0  0.9126787206604511  0.8543506886742868  0.5066466725051877  1.0000
  C   C19       1.0  0.9215743616330054  0.8433986525834127  0.6432925656181305  1.0000
  C   C20       1.0  0.9257181199617414  0.9571404320825255  0.7107214433222089  1.0000
  C   C21       1.0  0.8987962594499475  0.9862726476884637  0.2930287928375819  1.0000
  O   O1        1.0  0.9302501676727111  0.9026313917522569  0.23157308510770025  1.0000
  C   C22       1.0  0.8545808171575301  0.0904406920830938  0.2183039422315436  1.0000
  C   C23       1.0  0.8760342742482572  0.13658679300994647  0.09290970303652424  1.0000
  C   C24       1.0  0.8345415006083667  0.23381711934357963  0.020137347052935795  1.0000
  O   O2        1.0  0.8590448076370477  0.2767432273238548  0.8960369778402799  1.0000
  C   C25       1.0  0.8224799748381235  0.37466512473898694  0.8116125804792222  1.0000
  C   C26       1.0  0.7701796377764283  0.28484484589623094  0.07336995045695072  1.0000
  C   C27       1.0  0.7479386242993712  0.23837514417134242  0.1971827505630983  1.0000
  C   C28       1.0  0.7895675993500576  0.14143235718853187  0.269214030241977  1.0000
  H   H9        1.0  0.9393053290072356  0.2711518456740416  0.9009012836351209  1.0000
  H   H10       1.0  0.910744643877  0.18448965019164554  0.4531461655415623  1.0000
  H   H11       1.0  0.9091549430506768  0.7673573861237108  0.4536346857133857  1.0000
  H   H12       1.0  0.9325260996597204  0.9494325272367115  0.8161154846637964  1.0000
  H   H13       1.0  0.9256298310814381  0.5117719670274545  0.6957123802224423  1.0000
  H   H14       1.0  0.9256421853552036  0.0978729839313428  0.05158759941388502  1.0000
  H   H15       1.0  0.8537830631750762  0.3891590182356044  0.7202956476622369  1.0000
  H   H16       1.0  0.8236070152371135  0.468152453868935  0.8587252179193086  1.0000
  H   H17       1.0  0.7623565844306682  0.3438164741268417  0.7869365698827795  1.0000
  H   H18       1.0  0.7368584549617456  0.3599103761212159  0.019758013801363994  1.0000
  H   H19       1.0  0.6980408383143752  0.2772381927448111  0.23725940429076298  1.0000
  H   H20       1.0  0.7704222613444014  0.10541081432361987  0.364031936049646  1.0000
  C   C29       1.0  0.9215487375903554  0.46217352192661965  0.26178331753971995  1.0000
  C   C30       1.0  0.9806162277851852  0.5578618866374616  0.2581941182444185  1.0000
  C   C31       1.0  0.0098123517253208  0.6071786826731407  0.1390780608430413  1.0000
  C   C32       1.0  0.9804919787244305  0.557618729149713  0.022958577734198293  1.0000
  C   C33       1.0  0.9214965151214708  0.4618865579931004  0.024552517943909447  1.0000
  C   C34       1.0  0.8922287388017883  0.4149632038537143  0.14445975324555027  1.0000
  C   C35       1.0  0.07273429766498274  0.7072431583263423  0.13527099511991914  1.0000
  O   O3        1.0  0.12176154548039264  0.7046971224112184  0.049639350289549355  1.0000
  C   C36       1.0  0.08002649862469569  0.8102072323022786  0.22852556649178446  1.0000
  C   C37       1.0  0.1529899274865285  0.85995175500383  0.2662568137345356  1.0000
  C   C38       1.0  0.16043764460567722  0.9582889105961507  0.35311285925415303  1.0000
  C   C39       1.0  0.23536550169562576  0.007909809916514465  0.39203561288808886  1.0000
  N   N3        1.0  0.29559905674169307  0.047793805571459735  0.4233213586026574  1.0000
  C   C40       1.0  0.09492920136745431  0.008282146382061928  0.40197194794640656  1.0000
  C   C41       1.0  0.022221626966020924  0.960560444916833  0.36376128201406854  1.0000
  C   C42       1.0  0.014621363328124914  0.8624866195572218  0.2771684198264526  1.0000
  H   H21       1.0  0.8108880853519517  0.2801699170598626  0.4760568710071138  1.0000
  H   H22       1.0  0.004572962228027055  0.5931085444955053  0.34834506376932795  1.0000
  H   H23       1.0  0.003333259407795719  0.5948512769871395  0.9310906396398013  1.0000
  H   H24       1.0  0.8466922746729576  0.3411938082483905  0.14642296544529776  1.0000
  H   H25       1.0  0.8992754275641319  0.424330177570885  0.6978057312587533  1.0000
  H   H26       1.0  0.20398840407849894  0.8214564699071174  0.229029082358835  1.0000
  H   H27       1.0  0.10005742085721225  0.084384194765323  0.46909399679021724  1.0000
  H   H28       1.0  0.971605512198142  5.111401453694597e-05  0.4008717368189454  1.0000
  H   H29       1.0  0.9576316460646486  0.8286065519033761  0.24720001015402393  1.0000
  Zn  Zn1       1.0  0.8374564605924278  0.4583638383399966  0.6363028741185957  1.0000
  Zn  Zn2       1.0  0.005581471152103834  0.46569527147570056  0.6500317318010236  1.0000
  C   C43       1.0  0.921503992259638  0.4567669628542028  0.8803709489403986  1.0000
  C   C44       1.0  0.9215357756182633  0.4672938656122927  0.4059639349051758  1.0000
  C   C45       1.0  0.9215512084177699  0.6992268441674054  0.6380697188006104  1.0000
  C   C46       1.0  0.921488501874493  0.2248324214495625  0.6482652290917688  1.0000
  O   O4        1.0  0.9853339900102578  0.47178887458393426  0.4595622952893703  1.0000
  O   O5        1.0  0.9853087706272282  0.45783536240085687  0.8371920996914155  1.0000
  O   O6        1.0  0.9853460380905387  0.6536247448709416  0.6415320722387716  1.0000
  O   O7        1.0  0.9852966651851934  0.2759994989391028  0.6552222206816527  1.0000
  O   O8        1.0  0.8577412091865242  0.6480596083761523  0.6311123805461505  1.0000
  O   O9        1.0  0.8577039419360378  0.4522717862551535  0.8267723392601734  1.0000
  O   O10       1.0  0.85772916147081  0.46622525377142954  0.44914097338266434  1.0000
  O   O11       1.0  0.8576918366346853  0.2704358688009032  0.6448009961434922  1.0000
