data_image0
_chemical_formula_structural       NC12NC2H8C7OC4NC3H9C7OC3NC3H11Zn2C4O8
_chemical_formula_sum              "N4 C45 H28 O10 Zn2"
_cell_length_a       17.80743265337812
_cell_length_b       10.299371701877257
_cell_length_c       10.298749378158432
_cell_angle_alpha    85.57636868446646
_cell_angle_beta     91.54305523849354
_cell_angle_gamma    89.44495547056904

_space_group_name_H-M_alt    "P 1"
_space_group_IT_number       1

loop_
  _space_group_symop_operation_xyz
  'x, y, z'

loop_
  _atom_site_type_symbol
  _atom_site_label
  _atom_site_symmetry_multiplicity
  _atom_site_fract_x
  _atom_site_fract_y
  _atom_site_fract_z
  _atom_site_occupancy
  N   N1        1.0  0.7074295587555338  0.4067536738198254  0.601758672005704  1.0000
  C   C1        1.0  0.6566060467248508  0.4363158135777243  0.5330660394045479  1.0000
  C   C2        1.0  0.5933765836023821  0.4730889694156408  0.44762105227391236  1.0000
  C   C3        1.0  0.605096398693572  0.5271158080514378  0.32101237987268627  1.0000
  C   C4        1.0  0.5437743698993821  0.5623852562189966  0.23796298419936757  1.0000
  C   C5        1.0  0.470578185296294  0.5438913622669197  0.2808624097271726  1.0000
  C   C6        1.0  0.45788163064305387  0.4897456981548396  0.40793921418219914  1.0000
  C   C7        1.0  0.5200609742454846  0.4544795046794743  0.4909720981836776  1.0000
  C   C8        1.0  0.38011740573908676  0.4701375387033204  0.4536987228047884  1.0000
  C   C9        1.0  0.3613469973255319  0.4973180478789039  0.580762677082802  1.0000
  C   C10       1.0  0.28812087500609956  0.47886572545515316  0.62370268420586  1.0000
  C   C11       1.0  0.2327222505684776  0.4329785826440882  0.5404166709943692  1.0000
  C   C12       1.0  0.1573596088773241  0.4139733684207241  0.5847574995540374  1.0000
  N   N2        1.0  0.09677338183408471  0.39869445437926054  0.620404475352162  1.0000
  C   C13       1.0  0.2508012037685818  0.40562913548474855  0.41389566231526764  1.0000
  C   C14       1.0  0.3239744465595018  0.42409625520006644  0.370699754963588  1.0000
  H   H1        1.0  0.6615600659387644  0.54194119417759  0.28657845432317264  1.0000
  H   H2        1.0  0.5529667423139065  0.6044869165180025  0.1401926327679215  1.0000
  H   H3        1.0  0.4239351477623942  0.573529968120323  0.21527798025907674  1.0000
  H   H4        1.0  0.5115668373480433  0.410992538028617  0.5886174724070634  1.0000
  H   H5        1.0  0.4030336877361786  0.5344944050107312  0.6463546271195262  1.0000
  H   H6        1.0  0.2746895911492572  0.5007068407505939  0.7217270109241698  1.0000
  H   H7        1.0  0.208397799703844  0.3697200446539244  0.348717175079184  1.0000
  H   H8        1.0  0.33687721734074777  0.40071957487438326  0.2729782068947053  1.0000
  C   C15       1.0  0.9020657591976221  0.02135439040449838  0.6109528406942444  1.0000
  C   C16       1.0  0.9057036298474257  0.030631103549473737  0.47445354556384123  1.0000
  C   C17       1.0  0.9066854179084687  0.918158771018039  0.4055038294912203  1.0000
  C   C18       1.0  0.9057129517190023  0.795362569005575  0.4747714078832057  1.0000
  C   C19       1.0  0.9021443744554742  0.7840835995045972  0.6112218343767803  1.0000
  C   C20       1.0  0.9001437653838268  0.8976848429152352  0.6784977521249016  1.0000
  C   C21       1.0  0.9113157590114433  0.9277942457712316  0.26146649193580385  1.0000
  O   O1        1.0  0.9474689133681425  0.8413035467707437  0.20824854050776964  1.0000
  C   C22       1.0  0.8749199528850374  0.03546756315736643  0.1778061374402511  1.0000
  C   C23       1.0  0.907084539759961  0.07945582845700527  0.05936866840095423  1.0000
  C   C24       1.0  0.8726703848824184  0.18007781269042966  0.9789248162002928  1.0000
  C   C25       1.0  0.9062922294756826  0.2252201426515108  0.8583708485288168  1.0000
  N   N3        1.0  0.9333226966380979  0.26150497600971945  0.7614631023349783  1.0000
  C   C26       1.0  0.8055306685126633  0.23664272678603115  0.015883855219862575  1.0000
  C   C27       1.0  0.7727317352403279  0.19245710683798523  0.1325512857178308  1.0000
  C   C28       1.0  0.8069301854817078  0.09213706293351964  0.21297340944469312  1.0000
  H   H9        1.0  0.8963559793594315  0.21113921374838118  0.8686836783367107  1.0000
  H   H10       1.0  0.9086192639386176  0.12549878877427312  0.42170321566704083  1.0000
  H   H11       1.0  0.9070266611692039  0.7085021669288321  0.42181871722325637  1.0000
  H   H12       1.0  0.8973396439859695  0.889729274738997  0.7837289993822143  1.0000
  H   H13       1.0  0.9014058141816794  0.45227722762668016  0.663715047950906  1.0000
  H   H14       1.0  0.9591812899378086  0.036288876983243235  0.030284711304602308  1.0000
  H   H15       1.0  0.778442651240564  0.3144245668026837  0.954343315179154  1.0000
  H   H16       1.0  0.7205066021900889  0.23564299490899532  0.16047601562405056  1.0000
  H   H17       1.0  0.7797967576821316  0.057981485456515935  0.301836003638114  1.0000
  C   C29       1.0  0.9020704196621668  0.40274772635496014  0.22968463371980796  1.0000
  C   C30       1.0  0.9431187472417814  0.518763120163042  0.22167140382661965  1.0000
  C   C31       1.0  0.9631215553945031  0.578245031607215  0.10034484455197457  1.0000
  C   C32       1.0  0.9431217380201405  0.5188119198129897  0.9864275346264049  1.0000
  C   C33       1.0  0.902139690304324  0.4026902600019684  0.9924900413708411  1.0000
  C   C34       1.0  0.8817015367358138  0.3455791955274088  0.11454528903085337  1.0000
  C   C35       1.0  0.007077440648890487  0.7001034558150336  0.09181245980677866  1.0000
  O   O2        1.0  0.054021600104362744  0.7174745871362738  0.0027200913447276154  1.0000
  C   C36       1.0  0.9977793224174641  0.802247009018179  0.18429231061221252  1.0000
  C   C37       1.0  0.9274984162344855  0.826275853667414  0.23763865994576894  1.0000
  C   C38       1.0  0.9191049535593755  0.9239518842267287  0.32397087577939887  1.0000
  N   N4        1.0  0.8475813174903403  0.9472840742405437  0.3782253447813635  1.0000
  C   C39       1.0  0.9811045175201443  0.9989198423007553  0.35636423974041564  1.0000
  C   C40       1.0  0.05079361553685846  0.9768539041896773  0.30253089279293155  1.0000
  C   C41       1.0  0.05914381617252751  0.8794904404806194  0.2165735181483448  1.0000
  H   H18       1.0  0.8255048342920002  0.18250145387744876  0.4523134345508055  1.0000
  H   H19       1.0  0.960280265567857  0.562253811812661  0.3100546708112393  1.0000
  H   H20       1.0  0.9589703175567152  0.5640059474168306  0.8927960442046263  1.0000
  H   H21       1.0  0.8500642597797795  0.2561497947956686  0.11997042357485399  1.0000
  H   H22       1.0  0.8249761726116985  0.18303535448818242  0.7966737944502329  1.0000
  H   H23       1.0  0.8790191479656624  0.7702719703275716  0.2112541553059537  1.0000
  H   H24       1.0  0.8009904062430935  0.8919762816510302  0.3547465229980473  1.0000
  H   H25       1.0  0.8407054314811381  0.019944977594280378  0.4424089983917958  1.0000
  H   H26       1.0  0.9753395939161309  0.07465371631270967  0.42284751623448646  1.0000
  H   H27       1.0  0.09847056168548862  0.03533421778666801  0.3274711854396466  1.0000
  H   H28       1.0  0.11371984943436586  0.8637160136019606  0.1761816217264056  1.0000
  Zn  Zn1       1.0  0.8197857794679989  0.4044244893277722  0.6071469344528972  1.0000
  Zn  Zn2       1.0  0.9844171584981928  0.4010130445951623  0.6150268031585178  1.0000
  C   C42       1.0  0.9021244036439855  0.3975274878986028  0.8483015839850809  1.0000
  C   C43       1.0  0.9020803322722153  0.40791164738441354  0.37387236772990695  1.0000
  C   C44       1.0  0.9021251755117102  0.6399120289346689  0.6059951769574041  1.0000
  C   C45       1.0  0.9020795040727805  0.16552554720181423  0.6161788407632145  1.0000
  O   O3        1.0  0.9645604088090588  0.4083444152060849  0.4252534555442271  1.0000
  O   O4        1.0  0.9645957343453112  0.3945045327642165  0.8029007599658897  1.0000
  O   O5        1.0  0.9645955155444592  0.5902331323722085  0.6072365820970622  1.0000
  O   O6        1.0  0.9645605714244846  0.21261582605975993  0.6209175333441699  1.0000
  O   O7        1.0  0.8396423103610968  0.5928217090287473  0.6012562015714016  1.0000
  O   O8        1.0  0.8396425293130487  0.39709466973286145  0.796920310738755  1.0000
  O   O9        1.0  0.83960720368025  0.41093450703523904  0.41927144476448874  1.0000
  O   O10       1.0  0.8396073663004917  0.21520590859281996  0.6149356199374729  1.0000
