data_image0
_chemical_formula_structural       NC10NC5H10C7OC6OCH12C7OC4NC3H9Zn2C4O8
_chemical_formula_sum              "N3 C47 H31 O11 Zn2"
_cell_length_a       19.4436361288709
_cell_length_b       10.299359160628079
_cell_length_c       10.299375074045738
_cell_angle_alpha    85.54493941547133
_cell_angle_beta     89.69773134605877
_cell_angle_gamma    89.44098980803524

_space_group_name_H-M_alt    "P 1"
_space_group_IT_number       1

loop_
  _space_group_symop_operation_xyz
  'x, y, z'

loop_
  _atom_site_type_symbol
  _atom_site_label
  _atom_site_symmetry_multiplicity
  _atom_site_fract_x
  _atom_site_fract_y
  _atom_site_fract_z
  _atom_site_occupancy
  N   N1        1.0  0.6480305330291065  0.40988385773893987  0.562197694259811  1.0000
  C   C1        1.0  0.589196641267829  0.41977787049548954  0.5765836058530789  1.0000
  C   C2        1.0  0.5158699058986244  0.43211700075251525  0.594578341080862  1.0000
  C   C3        1.0  0.4736796439854977  0.4001725337809112  0.49989596876985787  1.0000
  C   C4        1.0  0.3977771302975786  0.4106080079533829  0.5052256048386912  1.0000
  C   C5        1.0  0.3580322890319927  0.38579982385832245  0.6123002436197407  1.0000
  C   C6        1.0  0.2819126079353527  0.389723754082284  0.5993407118104586  1.0000
  C   C7        1.0  0.2413612919967983  0.4473335332766679  0.6931231740436006  1.0000
  C   C8        1.0  0.16969869330176074  0.4509772423955085  0.6825792050679866  1.0000
  C   C9        1.0  0.1375925713577692  0.39661499434910685  0.578539265437571  1.0000
  C   C10       1.0  0.0638007413646213  0.4003200345648472  0.5678400144106188  1.0000
  N   N2        1.0  0.0044771150752681  0.40329869239865124  0.5592385259390669  1.0000
  C   C11       1.0  0.177418847723887  0.33829789907582875  0.48513996919130076  1.0000
  C   C12       1.0  0.2490978653037863  0.33460010598976253  0.4954321415830649  1.0000
  C   C13       1.0  0.3861560912223041  0.34526506675567137  0.7433963119402343  1.0000
  C   C14       1.0  0.44482841800069056  0.38836117783868684  0.7906464994732949  1.0000
  C   C15       1.0  0.48905650668990425  0.48626251088955286  0.7162875670334192  1.0000
  H   H1        1.0  0.4957730430211763  0.37110552373957173  0.409581077277702  1.0000
  H   H2        1.0  0.3730838205733449  0.43315515550127426  0.4120654562969972  1.0000
  H   H3        1.0  0.2652403468032715  0.49057984459872017  0.7739808699129833  1.0000
  H   H4        1.0  0.1393629400285946  0.49625174822066853  0.7555092961221195  1.0000
  H   H5        1.0  0.15306794941850563  0.2952470610706801  0.4046167971118899  1.0000
  H   H6        1.0  0.2787675329068247  0.28708178648991334  0.4231981389087689  1.0000
  H   H7        1.0  0.3551769727958367  0.2810110486275368  0.8076384039993558  1.0000
  H   H8        1.0  0.4599708018704151  0.3542386114466558  0.8885815303108897  1.0000
  H   H9        1.0  0.45896647212661157  0.5769923051670955  0.6910456935450495  1.0000
  H   H10       1.0  0.5323466102747937  0.5118135886874526  0.7793788398378303  1.0000
  C   C16       1.0  0.8261761792991061  0.025214434114192663  0.5606872892565686  1.0000
  C   C17       1.0  0.7692932067418876  0.031577870204190006  0.476759088338399  1.0000
  C   C18       1.0  0.741096107610556  0.9177941117677131  0.4333307239602757  1.0000
  C   C19       1.0  0.7694570211669706  0.7963132351490652  0.4770128451563531  1.0000
  C   C20       1.0  0.8263380509535336  0.7879579630941214  0.5607601949150005  1.0000
  C   C21       1.0  0.8544650524113317  0.9029994328154044  0.6019035232987122  1.0000
  C   C22       1.0  0.6805555370955535  0.9266581500007054  0.34589620641489116  1.0000
  O   O1        1.0  0.636847123209763  0.016333987067799205  0.3578260685582193  1.0000
  C   C23       1.0  0.6695979030755504  0.8338605324942892  0.24493552169092347  1.0000
  C   C24       1.0  0.7255447420478869  0.7795021148935354  0.18041326407483949  1.0000
  C   C25       1.0  0.7144958271656745  0.6933556128045893  0.08441923298036436  1.0000
  C   C26       1.0  0.6476813903326436  0.6606886782607267  0.05020977654604675  1.0000
  C   C27       1.0  0.5915031261958368  0.7160866387852827  0.11342214251600846  1.0000
  C   C28       1.0  0.6024891457832906  0.8022931747827597  0.20946311914728621  1.0000
  O   O2        1.0  0.639357073120393  0.573651756721041  0.9533765995681449  1.0000
  C   C29       1.0  0.574544616482938  0.5320215065615533  0.9090447302855615  1.0000
  H   H11       1.0  0.9333345033237834  0.22044769195684966  0.7194795347516532  1.0000
  H   H12       1.0  0.7471756525021531  0.12532689653337203  0.4439565616061938  1.0000
  H   H13       1.0  0.7466263610935807  0.7081092673551406  0.446749667372494  1.0000
  H   H14       1.0  0.8983427024437353  0.8972863460870677  0.6665106628222757  1.0000
  H   H15       1.0  0.8479821043650569  0.45725043411075345  0.5932999760205369  1.0000
  H   H16       1.0  0.7778335201126565  0.8046154371120737  0.20311124829406646  1.0000
  H   H17       1.0  0.7581486504361137  0.6521195292533514  0.03587359696718906  1.0000
  H   H18       1.0  0.5391857070380752  0.6932514529190887  0.08907971283508553  1.0000
  H   H19       1.0  0.5584519927935904  0.8434909589487742  0.2569611413471409  1.0000
  H   H20       1.0  0.5831349608426362  0.4634960602641013  0.8324954566011598  1.0000
  H   H21       1.0  0.5443252442496813  0.6169439844227081  0.8667838287097083  1.0000
  H   H22       1.0  0.5456677898492277  0.48095503358476227  0.9908235318394136  1.0000
  C   C30       1.0  0.8262805210908927  0.406728146515158  0.17933678027721656  1.0000
  C   C31       1.0  0.879241888271676  0.49886272277256793  0.1704626648123002  1.0000
  C   C32       1.0  0.9054200354834385  0.5464229708017279  0.048733914406307255  1.0000
  C   C33       1.0  0.879130479706188  0.4986270400244872  0.9352382503566194  1.0000
  C   C34       1.0  0.8262336787943894  0.4064443212050859  0.942110697519007  1.0000
  C   C35       1.0  0.7999915137783943  0.3612818673878184  0.06463648660285859  1.0000
  C   C36       1.0  0.9618372333260131  0.6427017243477271  0.03929747422731178  1.0000
  O   O3        1.0  0.005788841361366481  0.6372046190374383  0.9492972082856364  1.0000
  C   C37       1.0  0.9683838631087347  0.7452285661648508  0.1318796119118233  1.0000
  C   C38       1.0  0.03379846593673008  0.790582124740109  0.16309764538951788  1.0000
  C   C39       1.0  0.040484093077799654  0.8884726111553096  0.2492684123508888  1.0000
  C   C40       1.0  0.10765975097840674  0.9335843022761106  0.2815029146484964  1.0000
  N   N3        1.0  0.16166141080040908  0.9698434024944724  0.3074120610792106  1.0000
  C   C41       1.0  0.981761760406719  0.9424097274706535  0.3039544814577515  1.0000
  C   C42       1.0  0.9165767087866404  0.8990636231855429  0.27223378476868243  1.0000
  C   C43       1.0  0.9097543509499664  0.801445653358694  0.1863397379558327  1.0000
  H   H23       1.0  0.7270592055839424  0.23138238142210477  0.40351201884569177  1.0000
  H   H24       1.0  0.9007217637179995  0.5326679678614494  0.2584709224077719  1.0000
  H   H25       1.0  0.8996105556486345  0.5344853487442576  0.8413265952855946  1.0000
  H   H26       1.0  0.7591623978870355  0.2902521676601211  0.07067396044224417  1.0000
  H   H27       1.0  0.8063095628606386  0.37022484416029733  0.6173524288228505  1.0000
  H   H28       1.0  0.07951397803411453  0.7490165264052058  0.12133350303044055  1.0000
  H   H29       1.0  0.9863659938497249  0.01820435444862989  0.3706028336785563  1.0000
  H   H30       1.0  0.871204065803159  0.941601606964394  0.31384635726823285  1.0000
  H   H31       1.0  0.8586612639074137  0.7709953283743403  0.16145752909385314  1.0000
  Zn  Zn1       1.0  0.7508933170068024  0.4079800470324626  0.5613512543666981  1.0000
  Zn  Zn2       1.0  0.9016143197059514  0.40519189122834787  0.5600956465035161  1.0000
  C   C44       1.0  0.826239917797365  0.4013241916305532  0.7979295844977741  1.0000
  C   C45       1.0  0.8262693651239699  0.41184935478961404  0.32351743029025837  1.0000
  C   C46       1.0  0.8263042247402062  0.6437852268549638  0.5555709941678746  1.0000
  C   C47       1.0  0.8262050064152126  0.16938676015608967  0.5658760901414528  1.0000
  O   O4        1.0  0.8834634549124137  0.4125043226140377  0.3714292763594562  1.0000
  O   O5        1.0  0.8834395814260012  0.3985520984607649  0.749064387155908  1.0000
  O   O6        1.0  0.8834907389585509  0.5943424645037994  0.5533581172897761  1.0000
  O   O7        1.0  0.8834122459569445  0.2167139668490634  0.5671354492756588  1.0000
  O   O8        1.0  0.7690953393221289  0.596457972364624  0.5543114520162014  1.0000
  O   O9        1.0  0.7690441821218152  0.40066916668358066  0.7500176527826841  1.0000
  O   O10       1.0  0.7690680557402128  0.4146213461601824  0.37238098050703705  1.0000
  O   O11       1.0  0.7690168467739825  0.21883098107002508  0.5680872507948151  1.0000
