data_image0
_chemical_formula_structural       NC12NC2H8C7OC6OCH12C6NCOC6H11Zn2C4O8
_chemical_formula_sum              "N3 C45 H31 O11 Zn2"
_cell_length_a       19.240039667572717
_cell_length_b       10.299359160628079
_cell_length_c       10.299662537453274
_cell_angle_alpha    85.5452158657264
_cell_angle_beta     89.98643935911937
_cell_angle_gamma    90.02126226386561

_space_group_name_H-M_alt    "P 1"
_space_group_IT_number       1

loop_
  _space_group_symop_operation_xyz
  'x, y, z'

loop_
  _atom_site_type_symbol
  _atom_site_label
  _atom_site_symmetry_multiplicity
  _atom_site_fract_x
  _atom_site_fract_y
  _atom_site_fract_z
  _atom_site_occupancy
  N   N1        1.0  0.654941053753199  0.4218489199873303  0.5676178390023083  1.0000
  C   C1        1.0  0.5947926849629873  0.42184900400153325  0.5676177570753018  1.0000
  C   C2        1.0  0.5199746478625283  0.421849121341892  0.5676176197840843  1.0000
  C   C3        1.0  0.48347501898330175  0.35734320014681464  0.6710226905291092  1.0000
  C   C4        1.0  0.4108042378864417  0.3572322835278132  0.6711092191813446  1.0000
  C   C5        1.0  0.3736424129724476  0.42184921399533315  0.5676173921109342  1.0000
  C   C6        1.0  0.4108562664581483  0.486466331380087  0.4641257596102375  1.0000
  C   C7        1.0  0.4835269218627016  0.4863551792097045  0.4642124107330192  1.0000
  C   C8        1.0  0.2964373225292912  0.4218491353683784  0.5676172966828794  1.0000
  C   C9        1.0  0.2592217074527113  0.3085698219906916  0.6094730999932623  1.0000
  C   C10       1.0  0.1865510518806424  0.3086767593034374  0.6093817877185919  1.0000
  C   C11       1.0  0.1501050355727136  0.42184900616938825  0.5676173575763739  1.0000
  C   C12       1.0  0.0752869983636442  0.42184889232972655  0.5676176062258682  1.0000
  N   N2        1.0  0.015138681477014098  0.42184885142632944  0.5676178146432849  1.0000
  C   C13       1.0  0.186606530143165  0.5350213288847718  0.5258528745529525  1.0000
  C   C14       1.0  0.2592772592295024  0.5351284463842767  0.5257613997057415  1.0000
  H   H1        1.0  0.5111697351142036  0.30740105648673355  0.7517584906563144  1.0000
  H   H2        1.0  0.38369079840744263  0.3080878214723113  0.7529606565680529  1.0000
  H   H3        1.0  0.3837831751608386  0.5356108205079102  0.382274271377939  1.0000
  H   H4        1.0  0.5112619771400027  0.536297222500483  0.3834768863922755  1.0000
  H   H5        1.0  0.28629332125276585  0.21940051807263838  0.6406289190383581  1.0000
  H   H6        1.0  0.1588145961836888  0.22040626561185217  0.6415707165012827  1.0000
  H   H7        1.0  0.1589131623856101  0.6232917980334087  0.49366396031755677  1.0000
  H   H8        1.0  0.28639212426806115  0.6242978294977786  0.4946055358992807  1.0000
  C   C15       1.0  0.8349614214431703  0.04047061736189006  0.5675863211919532  1.0000
  C   C16       1.0  0.7774851991117298  0.045782774156233774  0.4831882882777543  1.0000
  C   C17       1.0  0.7489941397575086  0.931477883950852  0.43952707802017565  1.0000
  C   C18       1.0  0.7776507212415789  0.8105211666855183  0.4834433978006305  1.0000
  C   C19       1.0  0.8351249918425321  0.8032171371678284  0.5676605685388261  1.0000
  C   C20       1.0  0.8635453609841561  0.9187784326940998  0.6090362254766228  1.0000
  C   C21       1.0  0.6878220532369265  0.9392230542691546  0.3515924646706057  1.0000
  O   O1        1.0  0.6436529384494009  0.028091463198011812  0.3631591520100286  1.0000
  C   C22       1.0  0.6767555230417226  0.8462225174270671  0.2505436703681847  1.0000
  C   C23       1.0  0.733295187368854  0.7928973730239606  0.18648766900105773  1.0000
  C   C24       1.0  0.7221361003842021  0.7065462890515648  0.09040463021224299  1.0000
  C   C25       1.0  0.6546207479329107  0.6726448360204671  0.05564149237617011  1.0000
  C   C26       1.0  0.5978473063330402  0.7270052416345261  0.1183857179814054  1.0000
  C   C27       1.0  0.6089428331951326  0.8134151977896684  0.2145151788661408  1.0000
  O   O2        1.0  0.6462149828275109  0.5854536637949525  0.9587419491838984  1.0000
  C   C28       1.0  0.5807233201634331  0.5426258319437919  0.9138733036556528  1.0000
  H   H9        1.0  0.9432372886293904  0.23768431872124118  0.7272636348484527  1.0000
  H   H10       1.0  0.7551369849277542  0.13912303540324444  0.4502030836306645  1.0000
  H   H11       1.0  0.7545817359687444  0.7218952718025621  0.45299155061495266  1.0000
  H   H12       1.0  0.9078806327389538  0.9138762675275206  0.6740057816543401  1.0000
  H   H13       1.0  0.8569947392362511  0.4729096243785349  0.6003791043015754  1.0000
  H   H14       1.0  0.7861327586074953  0.8189768061810276  0.2096190777693283  1.0000
  H   H15       1.0  0.7662513646547076  0.6661164311133628  0.04222274233596557  1.0000
  H   H16       1.0  0.5449808970325923  0.7032034078207907  0.09360967246661533  1.0000
  H   H17       1.0  0.5644392614289601  0.8537996510720436  0.2616462920909608  1.0000
  H   H18       1.0  0.5894089214920649  0.4742587198784242  0.837397504572797  1.0000
  H   H19       1.0  0.5501886332070766  0.6269898234148382  0.8713627356646354  1.0000
  H   H20       1.0  0.5515374299643365  0.4910262698630913  0.9954100781779087  1.0000
  C   C29       1.0  0.8350910767343374  0.42198442934537805  0.18624745584095748  1.0000
  C   C30       1.0  0.9060469006291118  0.4543597211731838  0.18243660848638643  1.0000
  C   C31       1.0  0.9419952258144876  0.46878511885089535  0.06383334109699179  1.0000
  C   C32       1.0  0.9059252171738558  0.4540496409090351  0.9472932817693094  1.0000
  C   C33       1.0  0.8349953492014297  0.42170335403093806  0.9489993848382441  1.0000
  C   C34       1.0  0.8000379839378777  0.4054088233533564  0.06904483362212854  1.0000
  N   N3        1.0  0.014377506316173516  0.5038714809036084  0.06335316615795006  1.0000
  C   C35       1.0  0.063558903699517  0.4640205356499243  0.9691362775609123  1.0000
  O   O3        1.0  0.05086122752479194  0.36546009857872885  0.9075751737997337  1.0000
  C   C36       1.0  0.13030394729214811  0.5343508261943641  0.9467926723405733  1.0000
  C   C37       1.0  0.13871634080324768  0.6624239729275292  0.9831589436585042  1.0000
  C   C38       1.0  0.20178270884943017  0.7279809857248976  0.9609747189977744  1.0000
  C   C39       1.0  0.25694231257851574  0.6669525805669749  0.9019939384049138  1.0000
  C   C40       1.0  0.2490942044887816  0.5403258497236172  0.8646218397909786  1.0000
  C   C41       1.0  0.18614624185587392  0.47431179443068583  0.8864769404982109  1.0000
  H   H21       1.0  0.7010847386520438  0.36211997022809683  0.4006065175554885  1.0000
  H   H22       1.0  0.9338962242322244  0.4675791885317375  0.2718582654016073  1.0000
  H   H23       1.0  0.9328484189321031  0.47001392125947494  0.8551816296482433  1.0000
  H   H24       1.0  0.7453412346267844  0.380434170182804  0.07111845358652147  1.0000
  H   H25       1.0  0.8075626163649312  0.41097607634272637  0.6220747721972923  1.0000
  H   H26       1.0  0.033355867466873024  0.5510763725551677  0.1422803465347089  1.0000
  H   H27       1.0  0.09649645611710445  0.712960350265101  0.026937719702538443  1.0000
  H   H28       1.0  0.20778275676598312  0.8264627696388902  0.9891001538270134  1.0000
  H   H29       1.0  0.30568701923570396  0.7179318656572979  0.8848813744925943  1.0000
  H   H30       1.0  0.2918285595255614  0.4932068604530466  0.8186464154291668  1.0000
  H   H31       1.0  0.18133719999873077  0.37605263649468235  0.8569764897386816  1.0000
  Zn  Zn1       1.0  0.7588863159052229  0.42184543015545617  0.5676253201998449  1.0000
  Zn  Zn2       1.0  0.911193434493854  0.4218417436124793  0.567620931510961  1.0000
  C   C42       1.0  0.8350107659285072  0.41658268966653944  0.8048224407760998  1.0000
  C   C43       1.0  0.8350706479949599  0.427106122673963  0.3304239385150136  1.0000
  C   C44       1.0  0.8350911391870762  0.659043751135471  0.5624712336428401  1.0000
  C   C45       1.0  0.8349902224213276  0.18464350083990744  0.572775214737878  1.0000
  O   O4        1.0  0.892863548457588  0.4288179448379861  0.37880921713307614  1.0000
  O   O5        1.0  0.8928154441646523  0.4148670898929121  0.7564334572964542  1.0000
  O   O6        1.0  0.8928795672495079  0.6106574628889638  0.5607331430151778  1.0000
  O   O7        1.0  0.892799373414846  0.2330275811695235  0.574509434040285  1.0000
  O   O8        1.0  0.7772803250092877  0.6106595926010863  0.5607368176651877  1.0000
  O   O9        1.0  0.7772162022645518  0.4148707799728324  0.7564370628515258  1.0000
  O   O10       1.0  0.7772643067900145  0.4288215902361885  0.37881126125417786  1.0000
  O   O11       1.0  0.7772001317302155  0.23303121724281062  0.5745115755301209  1.0000
