data_image0
_chemical_formula_structural       NC12NC2H8C7OC4NC3H9C7OC3FC3H9Zn2C4O8
_chemical_formula_sum              "N3 C45 H26 O10 F1 Zn2"
_cell_length_a       17.80743265337812
_cell_length_b       10.299371701877257
_cell_length_c       10.29938172300155
_cell_angle_alpha    85.59571719418345
_cell_angle_beta     91.51787109396743
_cell_angle_gamma    89.44495547056904

_space_group_name_H-M_alt    "P 1"
_space_group_IT_number       1

loop_
  _space_group_symop_operation_xyz
  'x, y, z'

loop_
  _atom_site_type_symbol
  _atom_site_label
  _atom_site_symmetry_multiplicity
  _atom_site_fract_x
  _atom_site_fract_y
  _atom_site_fract_z
  _atom_site_occupancy
  N   N1        1.0  0.7077883900091694  0.40627279873797106  0.6018980982515691  1.0000
  C   C1        1.0  0.656982506597365  0.43581131412240603  0.5332123153663313  1.0000
  C   C2        1.0  0.5937749712574865  0.47255508421384396  0.447775848419977  1.0000
  C   C3        1.0  0.6055272779849408  0.526538380326268  0.32117980085792097  1.0000
  C   C4        1.0  0.544226562191709  0.5617792666253267  0.238138686491433  1.0000
  C   C5        1.0  0.47101936829120267  0.5433001263959076  0.28103383428424955  1.0000
  C   C6        1.0  0.4582902018647744  0.4891981658044724  0.4080979672201128  1.0000
  C   C7        1.0  0.5204482367036444  0.4539605285190089  0.49112257156122974  1.0000
  C   C8        1.0  0.3805142336790747  0.4696057436988703  0.4538529129132769  1.0000
  C   C9        1.0  0.3617112167900783  0.49682995197573976  0.5809041969534885  1.0000
  C   C10       1.0  0.2884740747587559  0.47839239723123494  0.6238399222949464  1.0000
  C   C11       1.0  0.2330968240453493  0.43247661117553204  0.5405622139847075  1.0000
  C   C12       1.0  0.1577228031489179  0.4134866463938316  0.5848986210792535  1.0000
  N   N2        1.0  0.0971274280074512  0.3982199918544025  0.6205420423235877  1.0000
  C   C13       1.0  0.2512082463845403  0.40508365164162097  0.41405382140334956  1.0000
  C   C14       1.0  0.32439257455913234  0.4235359156699645  0.37086222135047353  1.0000
  H   H1        1.0  0.6619997820227705  0.5413519241356222  0.2867493089023616  1.0000
  H   H2        1.0  0.5534440254521911  0.6038473023097497  0.14037808427336196  1.0000
  H   H3        1.0  0.4243931617167186  0.5729161768311173  0.21545594459623651  1.0000
  H   H4        1.0  0.5119290410331981  0.4105071435012948  0.5887582090333972  1.0000
  H   H5        1.0  0.40338107431130243  0.5340288671121913  0.6464896064602128  1.0000
  H   H6        1.0  0.27501763487817227  0.5002672244869721  0.7218544744746238  1.0000
  H   H7        1.0  0.2088215691020945  0.36915214500191085  0.3488818334686419  1.0000
  H   H8        1.0  0.3373204236619087  0.40012562751386915  0.27315041762851733  1.0000
  C   C15       1.0  0.9024222309479222  0.020876677328037774  0.6110913501395554  1.0000
  C   C16       1.0  0.9060951314686155  0.030106446423795674  0.4746056660960962  1.0000
  C   C17       1.0  0.9070946141239753  0.9176104011042348  0.405662825374584  1.0000
  C   C18       1.0  0.9061043717670528  0.7948380211972699  0.47492349671968004  1.0000
  C   C19       1.0  0.9025007771738139  0.7836059789388901  0.6113603169992687  1.0000
  C   C20       1.0  0.9004829030554096  0.8972303594946017  0.678629526299813  1.0000
  C   C21       1.0  0.9117619195888029  0.9271963393681956  0.2616398505653106  1.0000
  O   O1        1.0  0.9479287312905142  0.8406873379572178  0.2084272057885903  1.0000
  C   C22       1.0  0.8753875832539717  0.034840884768400526  0.17798783829861442  1.0000
  C   C23       1.0  0.9075825647858418  0.07878841773773382  0.059562179303369156  1.0000
  C   C24       1.0  0.8731890542475518  0.17938273618612  0.9791263485966306  1.0000
  C   C25       1.0  0.9068418366556869  0.22448360592290983  0.8585844020167932  1.0000
  N   N3        1.0  0.9338971732933189  0.2607351113287468  0.7616863190212708  1.0000
  C   C26       1.0  0.8060398530642393  0.23596036102096085  0.016081702229451933  1.0000
  C   C27       1.0  0.7732109793806846  0.19181486466178832  0.13273749918353617  1.0000
  C   C28       1.0  0.8073887908589986  0.09152247906962985  0.21315160358313978  1.0000
  H   H9        1.0  0.8966463095376584  0.21075013797305453  0.8687964880387684  1.0000
  H   H10       1.0  0.9090243028989115  0.12495599005980118  0.42186059622152383  1.0000
  H   H11       1.0  0.9074316704882853  0.7079594079369884  0.42197608626045113  1.0000
  H   H12       1.0  0.8976517761187952  0.8893109818411477  0.7838502803772582  1.0000
  H   H13       1.0  0.9017487455447837  0.4518176602238063  0.663848296189633  1.0000
  H   H14       1.0  0.9596867787916968  0.03561146387742431  0.03048112232652489  1.0000
  H   H15       1.0  0.7789676289665298  0.3137210363705154  0.9545472987306223  1.0000
  H   H16       1.0  0.7209786799953938  0.23501035644462576  0.16065944456309422  1.0000
  H   H17       1.0  0.7802325582149101  0.057397462702786894  0.3020053368040969  1.0000
  C   C29       1.0  0.9025247364310207  0.4021388897188054  0.22986116149121405  1.0000
  C   C30       1.0  0.9262853075529547  0.2711927274694066  0.23981484288459032  1.0000
  C   C31       1.0  0.939085690242968  0.20558645460336078  0.12766567686245667  1.0000
  C   C32       1.0  0.9262134846095801  0.271487347676034  0.0045454554759341015  1.0000
  C   C33       1.0  0.9023982433159191  0.4023437520777218  0.9925905301180435  1.0000
  C   C34       1.0  0.8908810483928937  0.4670123514488542  0.1058535154422402  1.0000
  C   C35       1.0  0.9634148024116069  0.06691453873821063  0.13802795352242425  1.0000
  O   O2        1.0  0.9402685481944404  0.9941490320814586  0.05271284583837921  1.0000
  C   C36       1.0  0.014007308222572457  0.01079491121672338  0.24507669387584574  1.0000
  C   C37       1.0  0.007941745342103346  0.8789592625014688  0.29001350225289646  1.0000
  C   C38       1.0  0.05597521365198488  0.8247585446492681  0.38985160376794004  1.0000
  F   F1        1.0  0.04930955383754276  0.6978289918194469  0.4331570283404522  1.0000
  C   C39       1.0  0.11085106433605985  0.9012472669974153  0.44497430584006414  1.0000
  C   C40       1.0  0.11799837701778326  0.03185509136122966  0.40002382060890906  1.0000
  C   C41       1.0  0.0701139247371414  0.08646449821020719  0.30026397391992  1.0000
  H   H18       1.0  0.8565819973546117  0.6486597855236833  0.4183919195525154  1.0000
  H   H19       1.0  0.9340632169162122  0.2196412861244441  0.334975017057733  1.0000
  H   H20       1.0  0.9355197943466403  0.22074528189244846  0.9179477147971813  1.0000
  H   H21       1.0  0.8725630659762976  0.5679617910955146  0.0973758964392546  1.0000
  H   H22       1.0  0.8926440089875087  0.45228680211397254  0.6605385717032055  1.0000
  H   H23       1.0  0.9656144325887475  0.8183183435628625  0.24859227850804788  1.0000
  H   H24       1.0  0.1480583893163645  0.8592691920458371  0.5221583723322947  1.0000
  H   H25       1.0  0.1609149980315312  0.09073608058117455  0.4421115802645259  1.0000
  H   H26       1.0  0.07751049820042644  0.18727061869165307  0.26539254750188657  1.0000
  Zn  Zn1       1.0  0.820143227929601  0.4039454673460179  0.6072858234058147  1.0000
  Zn  Zn2       1.0  0.9847725847458111  0.40053673261234213  0.6151649063668796  1.0000
  C   C42       1.0  0.9024199644875641  0.39713140243110545  0.8484164260965958  1.0000
  C   C43       1.0  0.9024976460829117  0.4073523989609704  0.37403451775832197  1.0000
  C   C44       1.0  0.9024829195493176  0.6394326108471289  0.6061341807583243  1.0000
  C   C45       1.0  0.902434634672509  0.16504963142111362  0.6163168290956427  1.0000
  O   O3        1.0  0.9649645366698162  0.40780283746960655  0.4254104820849871  1.0000
  O   O4        1.0  0.9649029464212435  0.39409283330753886  0.803020129240438  1.0000
  O   O5        1.0  0.964952940999749  0.5897541412215543  0.6073754621107257  1.0000
  O   O6        1.0  0.9649144859315649  0.21214153998284302  0.6210550491557931  1.0000
  O   O7        1.0  0.8400012705639287  0.5923406611401634  0.6013956779213265  1.0000
  O   O8        1.0  0.8399512761541538  0.3966809135146261  0.7970402763564151  1.0000
  O   O9        1.0  0.8400128667069223  0.4103908720001632  0.41942906780407174  1.0000
  O   O10       1.0  0.8399628159484981  0.21472956525079345  0.6150737322382092  1.0000
