data_image0
_chemical_formula_structural       NC8NC6H8C7OC3OC4H12C7OC3NC3H11Zn2C4O8
_chemical_formula_sum              "N3 C45 H31 O11 Zn2"
_cell_length_a       17.457602349358154
_cell_length_b       10.299371110280156
_cell_length_c       10.298749378158432
_cell_angle_alpha    85.57454226300092
_cell_angle_beta     92.88501269270333
_cell_angle_gamma    91.70033728131911

_space_group_name_H-M_alt    "P 1"
_space_group_IT_number       1

loop_
  _space_group_symop_operation_xyz
  'x, y, z'

loop_
  _atom_site_type_symbol
  _atom_site_label
  _atom_site_symmetry_multiplicity
  _atom_site_fract_x
  _atom_site_fract_y
  _atom_site_fract_z
  _atom_site_occupancy
  N   N1        1.0  0.7224945962704069  0.45293996534562964  0.626853165721571  1.0000
  C   C1        1.0  0.6614094487020585  0.40701521419041176  0.6162214450836812  1.0000
  C   C2        1.0  0.5854169437544996  0.34989053748756604  0.6030051293239271  1.0000
  C   C3        1.0  0.52690071300255  0.3900472921319882  0.6779228901837562  1.0000
  C   C4        1.0  0.45234663515195006  0.33504084776107934  0.6653217618907818  1.0000
  C   C5        1.0  0.3902402226693462  0.37744044930475606  0.7446624702014479  1.0000
  C   C6        1.0  0.3156908894138392  0.3959129583628733  0.6888998183265447  1.0000
  C   C7        1.0  0.2571746408883906  0.43588577863567024  0.7639254827778219  1.0000
  C   C8        1.0  0.1811870289050453  0.4549643031104307  0.7059473622198766  1.0000
  N   N2        1.0  0.1201059045263855  0.47029705703941604  0.6593331022679167  1.0000
  C   C9        1.0  0.2727156430846798  0.45762919650812517  0.8952224433970659  1.0000
  C   C10       1.0  0.3464803610612994  0.4395456488965692  0.9513728565218771  1.0000
  C   C11       1.0  0.4049850715655052  0.3997528513497226  0.8768050147381807  1.0000
  C   C12       1.0  0.4375972090297309  0.2392003274826211  0.5763695985630639  1.0000
  C   C13       1.0  0.49610179655534964  0.1993222259991423  0.5018519692532453  1.0000
  C   C14       1.0  0.5698711750238132  0.25444100734954445  0.5150031351457063  1.0000
  H   H1        1.0  0.5392611358682559  0.46523734196780864  0.7445843663649019  1.0000
  H   H2        1.0  0.3033343901956285  0.3809498866035417  0.5868609707384742  1.0000
  H   H3        1.0  0.22786432004854693  0.4885079549560567  0.9540738372192801  1.0000
  H   H4        1.0  0.3583233259051874  0.45606641781071144  0.053038918038590954  1.0000
  H   H5        1.0  0.4614729308585155  0.3847576454285917  0.9229108488264499  1.0000
  H   H6        1.0  0.38110541611970983  0.19386525084858697  0.5657019504144809  1.0000
  H   H7        1.0  0.484255223726745  0.12524873066164233  0.43399242547950756  1.0000
  H   H8        1.0  0.6147224714301609  0.2226925087799383  0.45666262948452707  1.0000
  C   C15       1.0  0.9212521811666238  0.08024500729074324  0.6429743960844201  1.0000
  C   C16       1.0  0.9123998800667975  0.08915867302026692  0.5062566698070763  1.0000
  C   C17       1.0  0.9070684111096093  0.9764297142410769  0.4373974410334922  1.0000
  C   C18       1.0  0.912437990566397  0.8538924268492062  0.5065708906638016  1.0000
  C   C19       1.0  0.9213556589976213  0.8429823229623286  0.6432237180214451  1.0000
  C   C20       1.0  0.9255102869308728  0.9567447942026333  0.7106560174773766  1.0000
  C   C21       1.0  0.8985210939337347  0.9857488334468155  0.2929421707241875  1.0000
  O   O1        1.0  0.9299650954331329  0.9020887187420459  0.23148334435747042  1.0000
  C   C22       1.0  0.8542936059184577  0.0898939472022009  0.2182135281242037  1.0000
  C   C23       1.0  0.8757268493287118  0.13600156869364466  0.09281292566191857  1.0000
  C   C24       1.0  0.8342223447101051  0.23320956354546785  0.020036876765850753  1.0000
  O   O2        1.0  0.8587056466314867  0.27609758913717397  0.8959302099447712  1.0000
  C   C25       1.0  0.8221272045327782  0.37399357943595035  0.8115015283757017  1.0000
  C   C26       1.0  0.7698690630286475  0.2842536254619885  0.0732721815163151  1.0000
  C   C27       1.0  0.7476480083024538  0.23782191788001317  0.19709126463787907  1.0000
  C   C28       1.0  0.7892885948695931  0.14090123496666895  0.2691261996225125  1.0000
  H   H9        1.0  0.9391281531624477  0.27081456783467694  0.900845508673457  1.0000
  H   H10       1.0  0.9104952894461352  0.18401497079175977  0.45306766875866966  1.0000
  H   H11       1.0  0.9089056673697667  0.7668828566348622  0.4535562137209812  1.0000
  H   H12       1.0  0.9323352562568371  0.9490692313785284  0.8160554071544026  1.0000
  H   H13       1.0  0.9254195785741431  0.5113717233516514  0.6956461927263526  1.0000
  H   H14       1.0  0.9253280992700059  0.09727507919824085  0.05148872510411673  1.0000
  H   H15       1.0  0.8534155724861346  0.38845945072005916  0.720179961581485  1.0000
  H   H16       1.0  0.8232618395374341  0.46749536591019836  0.8586165565978976  1.0000
  H   H17       1.0  0.761999836327007  0.34313735655444066  0.7868242655682205  1.0000
  H   H18       1.0  0.7365392379145733  0.3593027039180008  0.019657524264600212  1.0000
  H   H19       1.0  0.6977566827153047  0.27669726468200007  0.2371699520989945  1.0000
  H   H20       1.0  0.7701585416079842  0.10490878864961717  0.3639489170681012  1.0000
  C   C29       1.0  0.9212685352713521  0.46164011945941774  0.26169510984064437  1.0000
  C   C30       1.0  0.9631920513042153  0.5803355877622924  0.2551369643622625  1.0000
  C   C31       1.0  0.9836214275107517  0.6411235081503397  0.1345193793287489  1.0000
  C   C32       1.0  0.9631951070753213  0.5803845828380032  0.01989319998983019  1.0000
  C   C33       1.0  0.9213392751289963  0.461587174858503  0.024502980469605085  1.0000
  C   C34       1.0  0.900465381019813  0.40314169132738664  0.14583371555069435  1.0000
  C   C35       1.0  0.028514420856486478  0.7658518341960512  0.12754521634936844  1.0000
  O   O3        1.0  0.07645596792358211  0.7862875380383643  0.040120327915227794  1.0000
  C   C36       1.0  0.019021962276353  0.8673888022956369  0.21969168033733877  1.0000
  C   C37       1.0  0.9472493711152279  0.8868298159795229  0.27054014149752215  1.0000
  C   C38       1.0  0.9386806426413022  0.983958299929341  0.35657124592027456  1.0000
  N   N3        1.0  0.8656389110384658  0.0026215311270338937  0.40828369134327236  1.0000
  C   C39       1.0  0.001999046812483085  0.06297386665779436  0.39116533150043975  1.0000
  C   C40       1.0  0.07316732243128743  0.045457133967425456  0.3398087870739168  1.0000
  C   C41       1.0  0.08169187969839098  0.9486383939368066  0.25415097746332527  1.0000
  H   H21       1.0  0.8430703835547557  0.23639481062029644  0.48160992110189316  1.0000
  H   H22       1.0  0.9807193167307561  0.6249467477979103  0.34412872203262923  1.0000
  H   H23       1.0  0.9793816052319236  0.6266133770164322  0.9268234994663982  1.0000
  H   H24       1.0  0.8681535675647435  0.311646670239194  0.1501373697294559  1.0000
  H   H25       1.0  0.8425305119714448  0.23689420236131498  0.8259514811649025  1.0000
  H   H26       1.0  0.8977389427218381  0.8276609994150714  0.2424347512826457  1.0000
  H   H27       1.0  0.8180569601013582  0.9442720795736721  0.3831510594497838  1.0000
  H   H28       1.0  0.8586192244995725  0.07483385843128554  0.4722208927189451  1.0000
  H   H29       1.0  0.9961140073931539  0.1383316998872237  0.4574415392184785  1.0000
  H   H30       1.0  0.12185846667487055  0.10705001491690291  0.3664413846450598  1.0000
  H   H31       1.0  0.13742635580648344  0.9364266188722163  0.2156987095606333  1.0000
  Zn  Zn1       1.0  0.8372366312115769  0.4579453638087132  0.6362336718224013  1.0000
  Zn  Zn2       1.0  0.005363854877247665  0.4652810098867006  0.6499632261906678  1.0000
  C   C42       1.0  0.9213235069037581  0.4564233849192927  0.880314132144536  1.0000
  C   C43       1.0  0.9212788153632376  0.46680470751220615  0.4058830438085914  1.0000
  C   C44       1.0  0.9213316638541009  0.6988089118235958  0.6380006061648735  1.0000
  C   C45       1.0  0.9212706008375809  0.22441761777802882  0.6481966338383083  1.0000
  O   O4        1.0  0.9850856698661149  0.4713161640867014  0.45948412409997075  1.0000
  O   O5        1.0  0.9851213247963893  0.4574785342739811  0.837133091737811  1.0000
  O   O6        1.0  0.9851270516618091  0.6532078750113928  0.6414631353039317  1.0000
  O   O7        1.0  0.9850798856224888  0.27558683014322427  0.6551539784683094  1.0000
  O   O8        1.0  0.8575205430927649  0.6476395410503077  0.6310429148527053  1.0000
  O   O9        1.0  0.8575148164290884  0.45191176064088867  0.8267128025444752  1.0000
  O   O10       1.0  0.8574791613988453  0.4657493453076418  0.4490622733519323  1.0000
  O   O11       1.0  0.857473377159855  0.2700200020683483  0.644732225093757  1.0000
