data_image0
_chemical_formula_structural       NC10NC3NH7C7OC6OCH12C7OC6OCH12Zn2C4O8
_chemical_formula_sum              "N3 C45 H31 O12 Zn2"
_cell_length_a       19.210446455230148
_cell_length_b       10.299359160628079
_cell_length_c       10.299362532796529
_cell_angle_alpha    85.5843088683533
_cell_angle_beta     90.00583596421428
_cell_angle_gamma    89.96984927250973

_space_group_name_H-M_alt    "P 1"
_space_group_IT_number       1

loop_
  _space_group_symop_operation_xyz
  'x, y, z'

loop_
  _atom_site_type_symbol
  _atom_site_label
  _atom_site_symmetry_multiplicity
  _atom_site_fract_x
  _atom_site_fract_y
  _atom_site_fract_z
  _atom_site_occupancy
  N   N1        1.0  0.6555657921697557  0.41977993244166734  0.5675382270550637  1.0000
  C   C1        1.0  0.5953375707704912  0.42198753301987946  0.567769692440425  1.0000
  C   C2        1.0  0.5205335377577891  0.4247245534189128  0.5680564494719245  1.0000
  C   C3        1.0  0.4849403330735362  0.5409603953146429  0.583184903778027  1.0000
  C   C4        1.0  0.4122748646077432  0.5411119184282618  0.583132328865543  1.0000
  C   C5        1.0  0.3753668898795729  0.4254335511449563  0.5681430343634482  1.0000
  C   C6        1.0  0.298044560543714  0.4240770205724933  0.5679922475690657  1.0000
  C   C7        1.0  0.2602934296666095  0.52763001422628  0.5046461027259388  1.0000
  C   C8        1.0  0.1875148750671087  0.5262277402032629  0.5045368266361274  1.0000
  C   C9        1.0  0.151486065311057  0.42152996957260425  0.5677227363619501  1.0000
  C   C10       1.0  0.07655635451426  0.42022783747582815  0.5675857205878025  1.0000
  N   N2        1.0  0.0163183488396432  0.41918087907102475  0.5674755947745251  1.0000
  C   C11       1.0  0.1885135508727138  0.318102662189536  0.6310438911874157  1.0000
  C   C12       1.0  0.2612939271334496  0.3192306805585057  0.631203372925293  1.0000
  C   C13       1.0  0.4135702390418638  0.3110180635500974  0.5533030050859424  1.0000
  N   N3        1.0  0.48434052912203435  0.3134631060756683  0.5534689199377436  1.0000
  H   H1        1.0  0.513054810660681  0.6303982128393995  0.5952461462944092  1.0000
  H   H2        1.0  0.3850198293660921  0.6311320089385213  0.596588364432745  1.0000
  H   H3        1.0  0.2870226177384556  0.6088692822038928  0.4536677609283639  1.0000
  H   H4        1.0  0.1593704856121504  0.6066396810206092  0.45488874466622575  1.0000
  H   H5        1.0  0.1611444682956135  0.23672728801978637  0.6805923501584901  1.0000
  H   H6        1.0  0.2887936984951484  0.23893834197891417  0.6822891834187441  1.0000
  H   H7        1.0  0.3872909618663827  0.22013503193301265  0.5398005981300915  1.0000
  C   C14       1.0  0.8358634776671805  0.038102251794888575  0.5674754381031972  1.0000
  C   C15       1.0  0.7782760730889839  0.04345224980733997  0.4830894023106025  1.0000
  C   C16       1.0  0.7497294109888082  0.9291648691098647  0.4394341825685333  1.0000
  C   C17       1.0  0.7784419186396504  0.8081905416082036  0.4833444769961901  1.0000
  C   C18       1.0  0.8360273199669715  0.8008485503912309  0.5675496552650781  1.0000
  C   C19       1.0  0.8645025698873353  0.9163908904274678  0.6089193884737467  1.0000
  C   C20       1.0  0.6884395000052176  0.9369516071578132  0.35151229270197093  1.0000
  O   O1        1.0  0.6442054440963636  0.02590137775300616  0.3630863769486621  1.0000
  C   C21       1.0  0.6773288166245679  0.8439003460199594  0.25046783064282074  1.0000
  C   C22       1.0  0.733938399731732  0.7904373613028436  0.18640353522314546  1.0000
  C   C23       1.0  0.7227363489683585  0.7040391039907931  0.09032472633108823  1.0000
  C   C24       1.0  0.6551076625693891  0.6702261412098421  0.055574145836888356  1.0000
  C   C25       1.0  0.5982635901841465  0.7247238785090897  0.11832673738846755  1.0000
  C   C26       1.0  0.6094019953609313  0.8111811454552968  0.21445197831058183  1.0000
  O   O2        1.0  0.646662956236699  0.5829826585709914  0.9586783737255837  1.0000
  C   C27       1.0  0.5810583665159185  0.5402330386532851  0.9138221749970206  1.0000
  H   H8        1.0  0.9443489779231385  0.2352451351377618  0.7271301347921071  1.0000
  H   H9        1.0  0.755884583064712  0.1368071089953229  0.450108866481838  1.0000
  H   H10       1.0  0.7553292266960424  0.7195821762932484  0.45289736341993136  1.0000
  H   H11       1.0  0.9089235684866126  0.9114594452699356  0.6738796936210893  1.0000
  H   H12       1.0  0.8579395345797934  0.4705270528784  0.6002636116850437  1.0000
  H   H13       1.0  0.7868635733526436  0.8164447547452512  0.20952521376916589  1.0000
  H   H14       1.0  0.7669066498975943  0.6635029256986292  0.04213632411245083  1.0000
  H   H15       1.0  0.5453090929253019  0.7009930072789333  0.09356046632726978  1.0000
  H   H16       1.0  0.5648425068825059  0.8516718459808991  0.2615896983910462  1.0000
  H   H17       1.0  0.5897368347086207  0.47179916664428534  0.8373466909295466  1.0000
  H   H18       1.0  0.5504652371931766  0.624618725134655  0.8713179250855001  1.0000
  H   H19       1.0  0.5518493857357828  0.48873778869634843  0.9953620749766148  1.0000
  C   C28       1.0  0.8358910439934794  0.4193549765774156  0.18614564451389537  1.0000
  C   C29       1.0  0.7698017259760848  0.36078281679520807  0.18943906570600144  1.0000
  C   C30       1.0  0.7361683376438799  0.3325645224262568  0.07392884255712806  1.0000
  C   C31       1.0  0.7699977887828847  0.36094605263503654  0.9541847477208143  1.0000
  C   C32       1.0  0.8359997559580511  0.41959585566459934  0.9488794241752538  1.0000
  C   C33       1.0  0.8685084358730534  0.44871763577843726  0.06539877650590209  1.0000
  C   C34       1.0  0.6667333762133127  0.26938076319034  0.07973755061493804  1.0000
  O   O3        1.0  0.6524945721267881  0.19019608198135618  0.17562887936420224  1.0000
  C   C35       1.0  0.6134543750575401  0.29602103232342336  0.9768345736670936  1.0000
  C   C36       1.0  0.6081278975483935  0.41940512296252663  0.9089941031097379  1.0000
  C   C37       1.0  0.557182263580976  0.44366985033288975  0.8133097130502436  1.0000
  C   C38       1.0  0.5103367218506902  0.34608120690723854  0.7842595345012677  1.0000
  C   C39       1.0  0.5149311901814738  0.22289189047678648  0.8530183669993945  1.0000
  C   C40       1.0  0.5658705588247716  0.1984999716185043  0.9487751507807287  1.0000
  O   O4        1.0  0.46023304825448746  0.37532462573022607  0.6872865210965018  1.0000
  C   C41       1.0  0.4094604093015902  0.2856457243714321  0.6479139843295134  1.0000
  H   H20       1.0  0.9607202656322291  0.5293889865478336  0.3872390077047516  1.0000
  H   H21       1.0  0.7440236307346833  0.33808418713144284  0.2819754092327935  1.0000
  H   H22       1.0  0.7451086201833658  0.3359067617935345  0.8651325557677927  1.0000
  H   H23       1.0  0.9194243209494282  0.49395750637247393  0.0620388888032144  1.0000
  H   H24       1.0  0.8614361813547713  0.4416121227684182  0.6194079571660587  1.0000
  H   H25       1.0  0.6428407935571588  0.4975999098960546  0.9308198959321188  1.0000
  H   H26       1.0  0.5538861368265513  0.539136790006296  0.7617559370438047  1.0000
  H   H27       1.0  0.4794188506142463  0.14538423437430392  0.8332895554256896  1.0000
  H   H28       1.0  0.5684903356055276  0.10285228270436986  0.00021583435667849038  1.0000
  H   H29       1.0  0.376774413430136  0.3343961338856827  0.5698409988603403  1.0000
  H   H30       1.0  0.3754625691180528  0.25348846645415457  0.7314664255021133  1.0000
  H   H31       1.0  0.4353907079024709  0.2002808559219169  0.6092453540154921  1.0000
  Zn  Zn1       1.0  0.7596711868256214  0.4196035968100902  0.5675276514221868  1.0000
  Zn  Zn2       1.0  0.9122129374864076  0.41934663525751725  0.5674968050987621  1.0000
  C   C42       1.0  0.8359765333686728  0.41437653382989104  0.8047058914368803  1.0000
  C   C43       1.0  0.8359092570646722  0.42457533413127924  0.33031869237235667  1.0000
  C   C44       1.0  0.8359920231956366  0.6566716706601485  0.5623604500065689  1.0000
  C   C45       1.0  0.8358937148605851  0.18227863707015746  0.5726642028997135  1.0000
  O   O5        1.0  0.8938041677184932  0.42622415236607036  0.3786927777007296  1.0000
  O   O6        1.0  0.8938572816268167  0.41253170785805304  0.7563080205234425  1.0000
  O   O7        1.0  0.8938690096817296  0.608188096829755  0.5606123622233896  1.0000
  O   O8        1.0  0.8937923875995322  0.2305677727417459  0.5743883386380628  1.0000
  O   O9        1.0  0.7780916846574835  0.608382459414962  0.5606361178865809  1.0000
  O   O10       1.0  0.7780799569246805  0.4127276307632246  0.7563317070932842  1.0000
  O   O11       1.0  0.7780268428304097  0.42642002952096947  0.3787149028737986  1.0000
  O   O12       1.0  0.7780150627204832  0.23076364063836774  0.5744105611775472  1.0000
