data_image0
_chemical_formula_structural       NC10NC3NH7C7OC3OC4H12C7OC6OCH12Zn2C4O8
_chemical_formula_sum              "N3 C45 H31 O12 Zn2"
_cell_length_a       19.210446455230148
_cell_length_b       10.299371110280156
_cell_length_c       10.299362532796529
_cell_angle_alpha    85.59679077391144
_cell_angle_beta     90.00583596421428
_cell_angle_gamma    89.9600477448761

_space_group_name_H-M_alt    "P 1"
_space_group_IT_number       1

loop_
  _space_group_symop_operation_xyz
  'x, y, z'

loop_
  _atom_site_type_symbol
  _atom_site_label
  _atom_site_symmetry_multiplicity
  _atom_site_fract_x
  _atom_site_fract_y
  _atom_site_fract_z
  _atom_site_occupancy
  N   N1        1.0  0.655435601823348  0.4197545861259624  0.5678484057651754  1.0000
  C   C1        1.0  0.5952071779925114  0.4219621472934598  0.5680803534440841  1.0000
  C   C2        1.0  0.5204028940017347  0.42469911883042544  0.5683677084312504  1.0000
  C   C3        1.0  0.4847990307751431  0.5409328856508024  0.5835215567316503  1.0000
  C   C4        1.0  0.4121335484150513  0.5410844060593871  0.5834690149223556  1.0000
  C   C5        1.0  0.3752361811101614  0.42540810389923966  0.568454448217202  1.0000
  C   C6        1.0  0.2979139761648374  0.4240515975439467  0.5683033650621698  1.0000
  C   C7        1.0  0.2601533497315502  0.527602742540199  0.5049798433969495  1.0000
  C   C8        1.0  0.1873749237171468  0.5262004935509772  0.5048702609529363  1.0000
  C   C9        1.0  0.1513557144905259  0.4215045920147371  0.56803329740192  1.0000
  C   C10       1.0  0.0764261230960565  0.42020248316399456  0.5678959971515336  1.0000
  N   N2        1.0  0.0161882134249642  0.41915554344979067  0.5677856426097048  1.0000
  C   C11       1.0  0.1883926840832416  0.3180791310454165  0.6313318565081043  1.0000
  C   C12       1.0  0.2611729569074526  0.31920712927668093  0.6314915846836691  1.0000
  C   C13       1.0  0.4134500218927549  0.31099465888225075  0.5535894226374187  1.0000
  N   N3        1.0  0.48422008776850733  0.31343965775822613  0.5537558716566073  1.0000
  H   H1        1.0  0.5129053071332246  0.6303691065061685  0.595602338689492  1.0000
  H   H2        1.0  0.3848702585513286  0.6311028895053536  0.5969447171399453  1.0000
  H   H3        1.0  0.2868750883612694  0.6088405602112625  0.45401924990724685  1.0000
  H   H4        1.0  0.1592231606839381  0.6066109988314541  0.4552397465450988  1.0000
  H   H5        1.0  0.1610310634288732  0.23670520961202235  0.6808625374362456  1.0000
  H   H6        1.0  0.2886800908801694  0.2389162240987852  0.6825598537445052  1.0000
  H   H7        1.0  0.3871790784689338  0.22011324973492985  0.5400671605048086  1.0000
  C   C14       1.0  0.8357682862303392  0.03808371929783938  0.5677022318548681  1.0000
  C   C15       1.0  0.8277286668016604  0.04734420294503683  0.4317211976569739  1.0000
  C   C16       1.0  0.8228874371323172  0.934829371146813  0.3633044493261144  1.0000
  C   C17       1.0  0.8277632625854047  0.812076356841877  0.4320322714976317  1.0000
  C   C18       1.0  0.8358621856767922  0.8008164557099551  0.5679430630398061  1.0000
  C   C19       1.0  0.8396355902780012  0.9144174277839335  0.6350293203003745  1.0000
  C   C20       1.0  0.8151240769041199  0.9444785128566623  0.21956160424634774  1.0000
  O   O1        1.0  0.843649475767658  0.8593734618929715  0.15553495798432748  1.0000
  C   C21       1.0  0.7749923450254954  0.050593244054170095  0.14845914727349396  1.0000
  C   C22       1.0  0.7944313057506327  0.09568343577824234  0.021315709828213292  1.0000
  C   C23       1.0  0.7567702366901086  0.19473875218526904  0.9519428277697668  1.0000
  O   O2        1.0  0.7789765754137485  0.23647201459996725  0.8258435988876238  1.0000
  C   C24       1.0  0.7457842183457232  0.3359881724402365  0.7444159869736486  1.0000
  C   C25       1.0  0.6983859360430661  0.24871177354513962  0.01043992439620256  1.0000
  C   C26       1.0  0.6782321059085242  0.2033324824548337  0.13606645709528542  1.0000
  C   C27       1.0  0.7160165982149936  0.10455803965735333  0.2046871548687117  1.0000
  H   H8        1.0  0.8520021005062132  0.22794583940344215  0.8240873286446719  1.0000
  H   H9        1.0  0.8259975400911377  0.1422658627131892  0.3786928250919519  1.0000
  H   H10       1.0  0.8245553125639887  0.7252057764402791  0.3793114181285713  1.0000
  H   H11       1.0  0.8458339958065442  0.9064744714572204  0.7398607339474292  1.0000
  H   H12       1.0  0.8395524158559198  0.4690426119829659  0.620028262284152  1.0000
  H   H13       1.0  0.8394318576508213  0.05469929337738333  0.9759359310045164  1.0000
  H   H14       1.0  0.7741666704506157  0.3490045134752209  0.6505420096631003  1.0000
  H   H15       1.0  0.7468164140867113  0.42945702753583426  0.7914339420876608  1.0000
  H   H16       1.0  0.6912295245488916  0.3078395969809804  0.7246616478243815  1.0000
  H   H17       1.0  0.6681428293209216  0.3252462068598043  0.9595577181102013  1.0000
  H   H18       1.0  0.6329682972290327  0.24447810621117472  0.1802245735578898  1.0000
  H   H19       1.0  0.6986655272468519  0.06946703233857376  0.30106695499253533  1.0000
  C   C28       1.0  0.835760892614485  0.41932963784814326  0.18645573038408236  1.0000
  C   C29       1.0  0.7696769455208495  0.3607585237128137  0.18973635534167754  1.0000
  C   C30       1.0  0.7360461447372041  0.3325407331048895  0.07421996735419167  1.0000
  C   C31       1.0  0.7698729933593221  0.360921756638509  0.9544820730185544  1.0000
  C   C32       1.0  0.8358695824910336  0.41957051263508505  0.9491895626701918  1.0000
  C   C33       1.0  0.868375592010044  0.4486917728586106  0.0657152772235936  1.0000
  C   C34       1.0  0.6666169771027839  0.26935810184343745  0.08001487168334487  1.0000
  O   O3        1.0  0.652385434057806  0.1901748342619345  0.1758889009894231  1.0000
  C   C35       1.0  0.6133355330995054  0.2959978953868494  0.9771177148236183  1.0000
  C   C36       1.0  0.6079977415710982  0.41937978333802706  0.9093041999353844  1.0000
  C   C37       1.0  0.5570498825875428  0.4436440775275665  0.8136251109804244  1.0000
  C   C38       1.0  0.5102132894971152  0.3460571762821709  0.7845536122825658  1.0000
  C   C39       1.0  0.5148190539868409  0.2228700590624797  0.8532855316638095  1.0000
  C   C40       1.0  0.5657606593094247  0.19847857565568017  0.9490369865531405  1.0000
  O   O4        1.0  0.4601069343509483  0.3753000730433167  0.6875869876749103  1.0000
  C   C41       1.0  0.4093425187339123  0.28562277265781044  0.6481948587969812  1.0000
  H   H20       1.0  0.9605800244037113  0.5293616834600781  0.3875731326576872  1.0000
  H   H21       1.0  0.7439009316882574  0.33806029927144965  0.2822677399086271  1.0000
  H   H22       1.0  0.7449861208015165  0.33588291280555826  0.8654244107424502  1.0000
  H   H23       1.0  0.9192873287009617  0.49393083581759334  0.06236527305594208  1.0000
  H   H24       1.0  0.861303989049922  0.44158638669823325  0.6197229055453839  1.0000
  H   H25       1.0  0.6427034673092001  0.4975731743159486  0.9311470759391747  1.0000
  H   H26       1.0  0.5537450017483038  0.5391093128979765  0.762092191595162  1.0000
  H   H27       1.0  0.4793138216820605  0.1453637866487476  0.8335397870258712  1.0000
  H   H28       1.0  0.5683892067492586  0.1028325942713284  0.0004567740197043424  1.0000
  H   H29       1.0  0.3766520525691702  0.33437231186586636  0.5701325238087702  1.0000
  H   H30       1.0  0.3753476272922552  0.25346608882105937  0.7317402745872998  1.0000
  H   H31       1.0  0.4352806450843901  0.20025942816623865  0.6095075788569297  1.0000
  Zn  Zn1       1.0  0.75954101264876  0.41957825364237866  0.5678377916083288  1.0000
  Zn  Zn2       1.0  0.9120827868722918  0.41932129667715645  0.5678068891466246  1.0000
  C   C42       1.0  0.835846838500699  0.41435128397719656  0.8050148896688254  1.0000
  C   C43       1.0  0.8357786269916614  0.4245499022066972  0.3306299187318096  1.0000
  C   C44       1.0  0.8358401104563742  0.656642095285666  0.5627223823526617  1.0000
  C   C45       1.0  0.835785302801932  0.182257530695217  0.5729224948041558  1.0000
  O   O5        1.0  0.893673386452884  0.4261986910063158  0.3790043642767915  1.0000
  O   O6        1.0  0.8937277559248712  0.41250649093971736  0.7566166157170524  1.0000
  O   O7        1.0  0.8937215427675758  0.608159386997841  0.5609637023839971  1.0000
  O   O8        1.0  0.893679547545274  0.23054580429540272  0.5746571802491693  1.0000
  O   O9        1.0  0.7779441999207559  0.6083537461132307  0.5609875005094989  1.0000
  O   O10       1.0  0.7779504132570838  0.41270241034721744  0.7566403450900867  1.0000
  O   O11       1.0  0.7778960436033445  0.4263945646643603  0.37902653224305816  1.0000
  O   O12       1.0  0.777902204705618  0.2307416686953352  0.5746794455798285  1.0000
