data_image0
_chemical_formula_structural       NC10NC5H10C7OC3FC3H9C6SCOC6H10Zn2C4O8
_chemical_formula_sum              "N2 C45 H29 O10 F1 S1 Zn2"
_cell_length_a       19.4436361288709
_cell_length_b       10.29937835083307
_cell_length_c       10.302041481415108
_cell_angle_alpha    85.53259314287666
_cell_angle_beta     89.70072369043199
_cell_angle_gamma    89.43853249218071

_space_group_name_H-M_alt    "P 1"
_space_group_IT_number       1

loop_
  _space_group_symop_operation_xyz
  'x, y, z'

loop_
  _atom_site_type_symbol
  _atom_site_label
  _atom_site_symmetry_multiplicity
  _atom_site_fract_x
  _atom_site_fract_y
  _atom_site_fract_z
  _atom_site_occupancy
  N   N1        1.0  0.6479598007541407  0.40986064041139647  0.5622212840473082  1.0000
  C   C1        1.0  0.5891260856254307  0.4197553176255193  0.5766009551557114  1.0000
  C   C2        1.0  0.5157995720145122  0.43209527836073436  0.5945878936477027  1.0000
  C   C3        1.0  0.4736074135106715  0.4001470355269614  0.4999382942762658  1.0000
  C   C4        1.0  0.3977048154566908  0.4105828777659748  0.5052639246839716  1.0000
  C   C5        1.0  0.3579634673345063  0.3857778665506122  0.6123167454713083  1.0000
  C   C6        1.0  0.28184334306640807  0.38970142934194074  0.5993596238548324  1.0000
  C   C7        1.0  0.2412933310592101  0.4473154161098305  0.693103127742658  1.0000
  C   C8        1.0  0.1696303618132762  0.4509588344066484  0.6825610068435719  1.0000
  C   C9        1.0  0.1375225820311084  0.39659209051573274  0.5785618977676117  1.0000
  C   C10       1.0  0.0637303758602092  0.4002968357645904  0.5678645201151515  1.0000
  N   N2        1.0  0.0044064471477527  0.403275256465498  0.5592645376996923  1.0000
  C   C11       1.0  0.1773475806529461  0.3382707878855862  0.4852016365372245  1.0000
  C   C12       1.0  0.2490269630569317  0.33457327613590593  0.4954920402855356  1.0000
  C   C13       1.0  0.386091771170482  0.3452468111799516  0.7433886431708765  1.0000
  C   C14       1.0  0.4447644435525047  0.38834529551310815  0.7906156822098138  1.0000
  C   C15       1.0  0.4889883212862289  0.4862458777367258  0.7162517187115758  1.0000
  H   H1        1.0  0.4956989723752071  0.37107644907465587  0.40965431274795105  1.0000
  H   H2        1.0  0.3730084452226357  0.43312728209068596  0.4121225179811461  1.0000
  H   H3        1.0  0.2651736522399353  0.4905652394632938  0.7739288414946535  1.0000
  H   H4        1.0  0.1392956120523945  0.49623662079632136  0.7554606832483333  1.0000
  H   H5        1.0  0.1529954208462205  0.2952164526770651  0.40471031011731706  1.0000
  H   H6        1.0  0.2786956959382709  0.2870516591999632  0.42328883143081475  1.0000
  H   H7        1.0  0.355115840981836  0.2809938077436718  0.8076299962825377  1.0000
  H   H8        1.0  0.45991027536298673  0.35422542532746615  0.8885336174191063  1.0000
  H   H9        1.0  0.4588955850122798  0.5769764524211283  0.6909937529984111  1.0000
  H   H10       1.0  0.5322795942832583  0.5117995483632494  0.7793200863664274  1.0000
  C   C16       1.0  0.8261139173502589  0.025184239333207792  0.5608075108089579  1.0000
  C   C17       1.0  0.7543538727709901  0.026523315620873733  0.545381411671715  1.0000
  C   C18       1.0  0.7180727127814313  0.909911990077507  0.5390786720597944  1.0000
  C   C19       1.0  0.7545220490848017  0.7912762032117701  0.5453868904335353  1.0000
  C   C20       1.0  0.8262588921153724  0.7879415752284479  0.5606895396533744  1.0000
  C   C21       1.0  0.8616185184586267  0.9054236021841349  0.568653340541917  1.0000
  C   C22       1.0  0.642384093381058  0.9112872511110786  0.5214161667062185  1.0000
  O   O1        1.0  0.6158203011296879  0.8271111271236544  0.4549898275065001  1.0000
  C   C23       1.0  0.5968305121085036  0.008056182301034553  0.5791206317151825  1.0000
  C   C24       1.0  0.5355655010821019  0.04920870505888031  0.5158616709262374  1.0000
  C   C25       1.0  0.49187318806855285  0.13925371893102323  0.570273381907032  1.0000
  F   F1        1.0  0.4331905057276132  0.17905023253924646  0.5080541331397328  1.0000
  C   C26       1.0  0.5086093789179794  0.1881994190643752  0.688714157849811  1.0000
  C   C27       1.0  0.5688869450695536  0.14681236269829734  0.7531956115097809  1.0000
  C   C28       1.0  0.6127214600822404  0.05683618671866619  0.6991873462086846  1.0000
  H   H11       1.0  0.9616537122047792  0.23013043222277862  0.5879217256185849  1.0000
  H   H12       1.0  0.726680340981883  0.11854913122401367  0.5367997197565444  1.0000
  H   H13       1.0  0.7266785189167437  0.7013241630572973  0.5395668408800594  1.0000
  H   H14       1.0  0.9169401800742222  0.9035872708096327  0.5805449746662663  1.0000
  H   H15       1.0  0.8538816797393479  0.45928792481844566  0.5654717513781629  1.0000
  H   H16       1.0  0.5218651946120147  0.012492496913399043  0.4238367351625498  1.0000
  H   H17       1.0  0.4747678695854546  0.2577978768571736  0.7308648544162673  1.0000
  H   H18       1.0  0.5815239374964799  0.18403530341284347  0.8454428917940853  1.0000
  H   H19       1.0  0.6585565011759794  0.024408712487877127  0.7519478965269479  1.0000
  C   C29       1.0  0.8261993312485331  0.406691930037969  0.17946136521170808  1.0000
  C   C30       1.0  0.8577539731409786  0.5292123694977715  0.1682678022400983  1.0000
  C   C31       1.0  0.8737604209234343  0.5896452210852898  0.045740421536415  1.0000
  C   C32       1.0  0.8578191726412812  0.5288072859912922  0.9331619113153513  1.0000
  C   C33       1.0  0.826173512214387  0.4064338377088095  0.9420357098728416  1.0000
  C   C34       1.0  0.8105781429338319  0.3459548344048873  0.06575311314673415  1.0000
  S   S1        1.0  0.9146846040999566  0.7454284008258938  0.03285445997762926  1.0000
  C   C35       1.0  0.9993965803545535  0.6740598021974606  0.03473087897405969  1.0000
  O   O2        1.0  0.026308952677181363  0.6503888972917122  0.9274509250791243  1.0000
  C   C36       1.0  0.0373007316108509  0.6420155628733863  0.15794577407403088  1.0000
  C   C37       1.0  0.0983008848900595  0.5671622165678456  0.1576433420087977  1.0000
  C   C38       1.0  0.13414274568802687  0.5356020324579702  0.273302840950447  1.0000
  C   C39       1.0  0.10971444215944448  0.5784025912517043  0.39043656025417306  1.0000
  C   C40       1.0  0.04945348009111239  0.6530834636806111  0.39211315189244167  1.0000
  C   C41       1.0  0.013406398444389733  0.6850215891287776  0.2767547039470082  1.0000
  H   H20       1.0  0.7666212991932371  0.17587734866886962  0.4078684744485823  1.0000
  H   H21       1.0  0.8701187820957794  0.577913693828134  0.2544720802710667  1.0000
  H   H22       1.0  0.8704754422322836  0.5771716818130752  0.8390781223126957  1.0000
  H   H23       1.0  0.7862533597888057  0.25150005949087517  0.0734619844141402  1.0000
  H   H24       1.0  0.8143296055067597  0.3597341123822284  0.6180818720739647  1.0000
  H   H25       1.0  0.11816166097187808  0.5323359859982102  0.06816522162949057  1.0000
  H   H26       1.0  0.18088466012114646  0.4777516787147438  0.27207682799220856  1.0000
  H   H27       1.0  0.1375222615504046  0.5538366865667153  0.4798716476495719  1.0000
  H   H28       1.0  0.030660431611446493  0.6865028736752732  0.48293666596241525  1.0000
  H   H29       1.0  0.9671866113900793  0.7438043917179704  0.2812035001825721  1.0000
  Zn  Zn1       1.0  0.7508226035845572  0.40795676681144766  0.561375541986358  1.0000
  Zn  Zn2       1.0  0.901543633454215  0.4051685183586393  0.5601209602914172  1.0000
  C   C42       1.0  0.8261758567677498  0.4013087889175273  0.7978936179608069  1.0000
  C   C43       1.0  0.8261920264471508  0.4118181044447242  0.323602997802642  1.0000
  C   C44       1.0  0.8262281345491765  0.6437659971677339  0.5555378009976202  1.0000
  C   C45       1.0  0.8261396969362256  0.16935933675967485  0.5659588846590613  1.0000
  O   O3        1.0  0.8833874191583551  0.4124747036867793  0.3715021401116767  1.0000
  O   O4        1.0  0.8833742381068072  0.3985349939816125  0.7490419035600082  1.0000
  O   O5        1.0  0.8834156819763899  0.5943222697406945  0.553337872863997  1.0000
  O   O6        1.0  0.8833459238629593  0.21668743820266512  0.5672060738805618  1.0000
  O   O7        1.0  0.7690202617421228  0.5964378479203307  0.5542904288185109  1.0000
  O   O8        1.0  0.7689788181683486  0.40065213254899956  0.7499943900425876  1.0000
  O   O9        1.0  0.7689919993099349  0.4145917975239062  0.3724530655349221  1.0000
  O   O10       1.0  0.7689505040066623  0.21880452271773243  0.5681570966522311  1.0000
