data_image0
_chemical_formula_structural       NC8NC6H8C7OC6OCH12C7OC3FC3H9Zn2C4O8
_chemical_formula_sum              "N2 C45 H29 O11 F1 Zn2"
_cell_length_a       17.457602349358154
_cell_length_b       10.299359160628079
_cell_length_c       10.29938172300155
_cell_angle_alpha    85.58141560917656
_cell_angle_beta     92.85910674266745
_cell_angle_gamma    91.71072845926622

_space_group_name_H-M_alt    "P 1"
_space_group_IT_number       1

loop_
  _space_group_symop_operation_xyz
  'x, y, z'

loop_
  _atom_site_type_symbol
  _atom_site_label
  _atom_site_symmetry_multiplicity
  _atom_site_fract_x
  _atom_site_fract_y
  _atom_site_fract_z
  _atom_site_occupancy
  N   N1        1.0  0.7230013546863437  0.45252331189792594  0.6266973125689912  1.0000
  C   C1        1.0  0.6619143482601565  0.4065940521238931  0.6160764031404737  1.0000
  C   C2        1.0  0.5859195289702808  0.3494637699501404  0.6028735342846316  1.0000
  C   C3        1.0  0.5273877285833216  0.3896459360937041  0.677774694848374  1.0000
  C   C4        1.0  0.4528313894238107  0.33463413504112594  0.6651865012099984  1.0000
  C   C5        1.0  0.3907084751801636  0.37706064544264195  0.7445096560715689  1.0000
  C   C6        1.0  0.316175621906758  0.3955153252041024  0.688749194523085  1.0000
  C   C7        1.0  0.2576437568691609  0.43551358815219143  0.7637582855889342  1.0000
  C   C8        1.0  0.1816732666871953  0.45457357209704696  0.7057824692648629  1.0000
  N   N2        1.0  0.12060590755257382  0.4698914193456065  0.6591700632417221  1.0000
  C   C9        1.0  0.2731525538763707  0.45730044986210494  0.8950363759984419  1.0000
  C   C10       1.0  0.3469007296029695  0.4392348671358439  0.9511844748061524  1.0000
  C   C11       1.0  0.4054209548613166  0.39941678073683384  0.8766331187051848  1.0000
  C   C12       1.0  0.4380955786914827  0.238762362466739  0.5762641713049825  1.0000
  C   C13       1.0  0.49661565918640976  0.19885898664527146  0.5017630401398765  1.0000
  C   C14       1.0  0.5703871661967361  0.25398330715171347  0.5149011878591521  1.0000
  H   H1        1.0  0.5397382884335821  0.4648594821757641  0.7444131060125512  1.0000
  H   H2        1.0  0.303844347006003  0.38051853400926583  0.5867246053761972  1.0000
  H   H3        1.0  0.228288932783554  0.4881991552808638  0.9538748695574037  1.0000
  H   H4        1.0  0.35871872535417343  0.45578926846730283  0.05283599105769887  1.0000
  H   H5        1.0  0.4618952162740446  0.3844363227284062  0.9227370832862996  1.0000
  H   H6        1.0  0.3816019959762642  0.19342277868826518  0.5656072143303117  1.0000
  H   H7        1.0  0.4847793762336455  0.12476162814183178  0.4339264571693038  1.0000
  H   H8        1.0  0.6152505388260419  0.22221500924546267  0.4565737096370903  1.0000
  C   C15       1.0  0.9217170217061956  0.0798252671935793  0.6428951268645833  1.0000
  C   C16       1.0  0.8582744281033359  0.08231264908136326  0.5533175010976765  1.0000
  C   C17       1.0  0.8268258846173709  0.9666063592335636  0.5070888022730597  1.0000
  C   C18       1.0  0.8584571320372429  0.8470591841250275  0.5535875267093389  1.0000
  C   C19       1.0  0.9218975767769201  0.8425797210375869  0.6429841187323675  1.0000
  C   C20       1.0  0.9532681590172366  0.959537562387103  0.686920946745889  1.0000
  C   C21       1.0  0.7593037162205452  0.9713463099845614  0.4136414895114975  1.0000
  O   O1        1.0  0.7105472385634788  0.058092272983824245  0.42122592915589285  1.0000
  C   C22       1.0  0.7470910200554439  0.8777482661329092  0.3115974675540165  1.0000
  C   C23       1.0  0.809504354001762  0.8271088633305798  0.2526402258433931  1.0000
  C   C24       1.0  0.7971893363710143  0.7401589494838511  0.15555349472830726  1.0000
  C   C25       1.0  0.7226635138720172  0.7029800380032154  0.11470450517301511  1.0000
  C   C26       1.0  0.659992164946079  0.7546426001776262  0.17232892726875648  1.0000
  C   C27       1.0  0.6722370202446715  0.8416483508001715  0.2694563492341162  1.0000
  O   O2        1.0  0.7133877784841768  0.6153222801186904  0.01704950899627522  1.0000
  C   C28       1.0  0.6410961184804168  0.5693081785588474  0.9662776980134167  1.0000
  H   H9        1.0  0.04123254221969974  0.28236081889426323  0.8123299355355311  1.0000
  H   H10       1.0  0.833606342517649  0.17455445920839674  0.518318343374748  1.0000
  H   H11       1.0  0.8329933447211397  0.7573016857126111  0.521056685516309  1.0000
  H   H12       1.0  0.0022056978422018148  0.9568142522152759  0.7558858740843355  1.0000
  H   H13       1.0  0.9460375145020072  0.5133474198818231  0.6776734789405154  1.0000
  H   H14       1.0  0.8678284501275024  0.8557506618786485  0.28053452605459617  1.0000
  H   H15       1.0  0.8458874959832778  0.701825787481119  0.11134988771163523  1.0000
  H   H16       1.0  0.6016362864234949  0.7282759704736261  0.142787430363694  1.0000
  H   H17       1.0  0.6231102592904144  0.8799167201646136  0.31257420009226045  1.0000
  H   H18       1.0  0.6506860778574312  0.5013115124733895  0.8905867843585664  1.0000
  H   H19       1.0  0.6073916792359948  0.65217295772081  0.9210153749018346  1.0000
  H   H20       1.0  0.6088767388891744  0.5163528814983985  0.045181306943272936  1.0000
  C   C29       1.0  0.9218718574386051  0.4611041934796267  0.26157719795181533  1.0000
  C   C30       1.0  0.9461196945384974  0.33170598587542544  0.27240609303650865  1.0000
  C   C31       1.0  0.9591832284729487  0.2669337626337671  0.16072724194609456  1.0000
  C   C32       1.0  0.9460463853853323  0.3319959242980959  0.03713408430651399  1.0000
  C   C33       1.0  0.9217427055329793  0.4613008021217857  0.024302025223820634  1.0000
  C   C34       1.0  0.9099894810425928  0.525219110263337  0.1371404912550529  1.0000
  C   C35       1.0  0.9840106617543256  0.1298467200409501  0.17198677506364035  1.0000
  O   O3        1.0  0.9603633873014857  0.05556801495170505  0.08586709587927244  1.0000
  C   C36       1.0  0.03566998036656388  0.07702894850616149  0.28084569921175584  1.0000
  C   C37       1.0  0.029458289090514622  0.9447937965077294  0.3255986945514562  1.0000
  C   C38       1.0  0.07850448838134705  0.8937278981189974  0.42715563874418794  1.0000
  F   F1        1.0  0.07168060411560462  0.7663597888924294  0.4702547626563598  1.0000
  C   C39       1.0  0.1345555413248547  0.9738016338784752  0.48420885908048095  1.0000
  C   C40       1.0  0.14187178891990904  0.10487955982664698  0.4394808982371323  1.0000
  C   C41       1.0  0.09297782337278004  0.15636388764157028  0.3380074030444693  1.0000
  H   H21       1.0  0.8749860774704586  0.7046318344824183  0.4484172679665248  1.0000
  H   H22       1.0  0.9540559653640214  0.28066103176006774  0.3678548462825395  1.0000
  H   H23       1.0  0.955543614507575  0.28186016069827047  0.9508790080441663  1.0000
  H   H24       1.0  0.8912958453404215  0.6249751691943539  0.12798813526088226  1.0000
  H   H25       1.0  0.9117879362430334  0.5106082826811007  0.6918916863872431  1.0000
  H   H26       1.0  0.9862242931019206  0.8813876110312993  0.28268880065640434  1.0000
  H   H27       1.0  0.17254734123457482  0.9342518294394204  0.5627243610439181  1.0000
  H   H28       1.0  0.1857073740243611  0.16656424696745464  0.48307867844832475  1.0000
  H   H29       1.0  0.10054470380993097  0.25765560136297094  0.30337449606530686  1.0000
  Zn  Zn1       1.0  0.8377414378509306  0.4575318916445923  0.6360757448974725  1.0000
  Zn  Zn2       1.0  0.0058658058176053185  0.4648721941482117  0.64980226201742  1.0000
  C   C42       1.0  0.921764202227119  0.4560897337129832  0.8801299418959698  1.0000
  C   C43       1.0  0.9218448777205879  0.46631607094539596  0.4057483425674353  1.0000
  C   C44       1.0  0.9218603679170566  0.6984014212410803  0.637791857770323  1.0000
  C   C45       1.0  0.9217486542804921  0.22400282057332  0.6480864910646653  1.0000
  O   O4        1.0  0.98563814319546  0.4708451652404302  0.45934263677003706  1.0000
  O   O5        1.0  0.9855734417372615  0.4571307793220407  0.8369533826235134  1.0000
  O   O6        1.0  0.9856502364336475  0.6528004942473562  0.6412635950446435  1.0000
  O   O7        1.0  0.9855612911482995  0.2751754570758085  0.6550323222930547  1.0000
  O   O8        1.0  0.8580458951476425  0.6472286262135225  0.6308456799308204  1.0000
  O   O9        1.0  0.8579691008288204  0.4515604716287127  0.8265353984470902  1.0000
  O   O10       1.0  0.8580338025916653  0.4652748118892327  0.4489230912184723  1.0000
  O   O11       1.0  0.8579569505226848  0.2696050944604438  0.6446128741063255  1.0000
