data_image0
_chemical_formula_structural       NC12NC2H8C7OC3FC3H9C7OC3NC3H11Zn2C4O8
_chemical_formula_sum              "N3 C44 H28 O10 F1 Zn2"
_cell_length_a       17.80743265337812
_cell_length_b       10.29937835083307
_cell_length_c       10.298749378158432
_cell_angle_alpha    85.54775683836141
_cell_angle_beta     91.54305523849354
_cell_angle_gamma    89.45609770286684

_space_group_name_H-M_alt    "P 1"
_space_group_IT_number       1

loop_
  _space_group_symop_operation_xyz
  'x, y, z'

loop_
  _atom_site_type_symbol
  _atom_site_label
  _atom_site_symmetry_multiplicity
  _atom_site_fract_x
  _atom_site_fract_y
  _atom_site_fract_z
  _atom_site_occupancy
  N   N1        1.0  0.7075766303758785  0.4068043020469856  0.6010610909694758  1.0000
  C   C1        1.0  0.6567562089728409  0.4363675057286931  0.5323537990939422  1.0000
  C   C2        1.0  0.5935305903668041  0.47314198501059446  0.4468905768901512  1.0000
  C   C3        1.0  0.6052560537920615  0.527170768040147  0.32025511365924286  1.0000
  C   C4        1.0  0.5439377123064509  0.5624414855341464  0.2371882285713538  1.0000
  C   C5        1.0  0.4707395942255973  0.5439469259978371  0.28009682485161336  1.0000
  C   C6        1.0  0.4580373788154641  0.4897993132155434  0.40720047905950096  1.0000
  C   C7        1.0  0.5202130354495832  0.45453185053087175  0.4902508508616128  1.0000
  C   C8        1.0  0.3802711039408191  0.4701904480780399  0.45296971097654004  1.0000
  C   C9        1.0  0.361503537163011  0.49737193546396563  0.5800201869831907  1.0000
  C   C10       1.0  0.28827548571198397  0.4789189489521175  0.6229693442442132  1.0000
  C   C11       1.0  0.23287206391959284  0.433030154690103  0.5397060855498979  1.0000
  C   C12       1.0  0.1575074352937663  0.4140242564803942  0.5840563384155248  1.0000
  N   N2        1.0  0.09691961088868101  0.39874479255991124  0.6197108907218101  1.0000
  C   C13       1.0  0.2509481578220216  0.40567972324044366  0.4131986389151283  1.0000
  C   C14       1.0  0.3241233312915461  0.42414750757640474  0.36999357408780353  1.0000
  H   H1        1.0  0.6617212709841993  0.5419966877231193  0.2858138364969993  1.0000
  H   H2        1.0  0.5531344863155931  0.6045446610468392  0.1393969997678668  1.0000
  H   H3        1.0  0.42409965531363014  0.5735865985270185  0.2144976981911313  1.0000
  H   H4        1.0  0.511714352128153  0.41104331880997647  0.5879177894027778  1.0000
  H   H5        1.0  0.40319411424350166  0.534549630550752  0.6455937020072944  1.0000
  H   H6        1.0  0.2748464852742479  0.5007608502962935  0.7209828403898906  1.0000
  H   H7        1.0  0.20854099957609934  0.3697693400628199  0.34803795827963024  1.0000
  H   H8        1.0  0.3370236581152478  0.400769985937915  0.27228361804756696  1.0000
  C   C15       1.0  0.902172538549216  0.021391148340909272  0.6104463714613755  1.0000
  C   C16       1.0  0.8237877349790115  0.02302278073468389  0.5906655588594756  1.0000
  C   C17       1.0  0.784157354542241  0.906559762147182  0.5821615763809886  1.0000
  C   C18       1.0  0.8239714331071111  0.78777497462753  0.5906812339359939  1.0000
  C   C19       1.0  0.9023308780553062  0.7841478539778494  0.6103371525012746  1.0000
  C   C20       1.0  0.9409548882391799  0.9014858198166036  0.6204468408695059  1.0000
  C   C21       1.0  0.7014811191672871  0.9082432295615891  0.5599055297319497  1.0000
  O   O1        1.0  0.6724572413412747  0.8241594372381439  0.49184865645527354  1.0000
  C   C22       1.0  0.6517307436034573  0.005215625061221196  0.6148662002435115  1.0000
  C   C23       1.0  0.5848034514211372  0.046604746104739636  0.5478741263419309  1.0000
  C   C24       1.0  0.5370857008652232  0.13684466509945814  0.5996538658809947  1.0000
  F   F1        1.0  0.4729791953000603  0.17686737660951524  0.5338583588734358  1.0000
  C   C25       1.0  0.5553816319502107  0.1857523321822141  0.719145310441762  1.0000
  C   C26       1.0  0.6212305035762108  0.14413308048409657  0.7873003925439914  1.0000
  C   C27       1.0  0.6691036316454405  0.0539615176919197  0.7359328419041462  1.0000
  H   H9        1.0  0.05022486627122946  0.22578423179739437  0.6457851168861406  1.0000
  H   H10       1.0  0.793559095568407  0.11516072533439337  0.580403712592487  1.0000
  H   H11       1.0  0.7935574591764448  0.6979364923179641  0.5831715676271303  1.0000
  H   H12       1.0  0.001383746631507643  0.899423949230127  0.6356956352338037  1.0000
  H   H13       1.0  0.9325036042439981  0.45538128523736066  0.6167952831508026  1.0000
  H   H14       1.0  0.5698269664861076  0.009920968596312862  0.45499061412594943  1.0000
  H   H15       1.0  0.5184222550555818  0.25550175380680806  0.7592574379238992  1.0000
  H   H16       1.0  0.6350455688767619  0.18132804412163828  0.8803418603274109  1.0000
  H   H17       1.0  0.7191755683668518  0.021358462722092852  0.7914879558913654  1.0000
  C   C28       1.0  0.902217072473451  0.40279821041045594  0.22898903915287838  1.0000
  C   C29       1.0  0.9432775290933301  0.5188177795434872  0.22091827954419196  1.0000
  C   C30       1.0  0.9632865558906232  0.5783018317062381  0.09956222437826523  1.0000
  C   C31       1.0  0.9432805249735374  0.5188665809497053  0.9856743861452064  1.0000
  C   C32       1.0  0.9022863371076835  0.40274074198928456  0.9917944753003276  1.0000
  C   C33       1.0  0.8818422127591085  0.34562762212151776  0.11387804319598427  1.0000
  C   C34       1.0  0.007255181055511484  0.7001646415261915  0.0909694124755549  1.0000
  O   O2        1.0  0.05420115660748892  0.7175363980241054  0.001868430016602085  1.0000
  C   C35       1.0  0.9979677416075542  0.8023118708150021  0.18339861233405053  1.0000
  C   C36       1.0  0.9276893475638244  0.8263415802480492  0.23673304624370473  1.0000
  C   C37       1.0  0.9193060966069068  0.9240211261095492  0.32301682648560304  1.0000
  N   N3        1.0  0.8477848998440953  0.9473541558349909  0.37725972552077836  1.0000
  C   C38       1.0  0.9813134982291464  0.9989917822357515  0.3553730153342676  1.0000
  C   C39       1.0  0.05100028932224432  0.9769250499846989  0.3015506104445569  1.0000
  C   C40       1.0  0.05934031091759051  0.8795580822225513  0.21564151639604612  1.0000
  H   H18       1.0  0.8256284610563145  0.18254401140072973  0.45172705570930094  1.0000
  H   H19       1.0  0.9604435942328312  0.5623100363972051  0.3092799803638808  1.0000
  H   H20       1.0  0.959133829401892  0.5640622350596922  0.8920204849082332  1.0000
  H   H21       1.0  0.8501955862437895  0.2561950028788904  0.11934752399277415  1.0000
  H   H22       1.0  0.8250998551936228  0.18307793122622829  0.7960871508580833  1.0000
  H   H23       1.0  0.8792042242672011  0.7703356813617894  0.21037631281053426  1.0000
  H   H24       1.0  0.801188206343121  0.8920443727509517  0.3538083297666128  1.0000
  H   H25       1.0  0.8409166103011337  0.020017674211378456  0.4414073480411924  1.0000
  H   H26       1.0  0.9755564923606778  0.07472838186474107  0.4218187369135764  1.0000
  H   H27       1.0  0.09868334940157819  0.03540746825335761  0.32646190387234886  1.0000
  H   H28       1.0  0.11391469501329277  0.8637830876316615  0.17525744219718242  1.0000
  Zn  Zn1       1.0  0.8199326075795165  0.40447503372896887  0.6064505084127154  1.0000
  Zn  Zn2       1.0  0.9845636299540184  0.4010634662204946  0.6143320687856091  1.0000
  C   C41       1.0  0.9022705106959494  0.3975777840808248  0.8476085780300877  1.0000
  C   C42       1.0  0.9022275249550115  0.4079623172863527  0.3731742124777273  1.0000
  C   C43       1.0  0.9022966230961783  0.6399710483922103  0.6051819773519882  1.0000
  C   C44       1.0  0.9022013560600687  0.16556749377232105  0.6156008799346071  1.0000
  O   O3        1.0  0.9647076467363536  0.40839510068308016  0.42455508569113243  1.0000
  O   O4        1.0  0.9647415253569348  0.3945547201520827  0.8022092530339406  1.0000
  O   O5        1.0  0.9647617693583685  0.590290363915841  0.6064480172637376  1.0000
  O   O6        1.0  0.9646873465505872  0.21265946738136643  0.6203162213872633  1.0000
  O   O7        1.0  0.8398088348024588  0.5928790337337124  0.6004663531146395  1.0000
  O   O8        1.0  0.8397885911152506  0.3971449503382152  0.7962275194096413  1.0000
  O   O9        1.0  0.8397547123934042  0.41098528572809734  0.4185717905366131  1.0000
  O   O10       1.0  0.8397344122114818  0.2152496431299542  0.6143330236103952  1.0000
