data_image0
_chemical_formula_structural       NC10NC3NCH9C6SCOC6H10C7OC6OCH12Zn2C4O8
_chemical_formula_sum              "N3 C45 H31 S1 O11 Zn2"
_cell_length_a       19.437513618241372
_cell_length_b       10.302038109246572
_cell_length_c       10.299362532796529
_cell_angle_alpha    85.5856087193975
_cell_angle_beta     90.36260544927384
_cell_angle_gamma    89.54061355658763

_space_group_name_H-M_alt    "P 1"
_space_group_IT_number       1

loop_
  _space_group_symop_operation_xyz
  'x, y, z'

loop_
  _atom_site_type_symbol
  _atom_site_label
  _atom_site_symmetry_multiplicity
  _atom_site_fract_x
  _atom_site_fract_y
  _atom_site_fract_z
  _atom_site_occupancy
  N   N1        1.0  0.6478851489254598  0.40970282127687785  0.5759313520193574  1.0000
  C   C1        1.0  0.5889541981720166  0.4267079022369302  0.5729589511146129  1.0000
  C   C2        1.0  0.5155167103373279  0.44795419990252516  0.5692694516504888  1.0000
  C   C3        1.0  0.4737347843566492  0.3467864934699445  0.5575887681697549  1.0000
  C   C4        1.0  0.3978452419866673  0.3568469875310516  0.5503695732882365  1.0000
  C   C5        1.0  0.35829685063810646  0.43769151753353985  0.6161290133995247  1.0000
  C   C6        1.0  0.2821116014457567  0.42908333549187483  0.6076831126031494  1.0000
  C   C7        1.0  0.2489557478203922  0.3077699447015354  0.6123007769601714  1.0000
  C   C8        1.0  0.1772186520535068  0.3013980277133388  0.6051313903536382  1.0000
  C   C9        1.0  0.1376667691751665  0.4158670214961677  0.5937064699368062  1.0000
  C   C10       1.0  0.0638151108674839  0.4091569679516198  0.5863689208212384  1.0000
  N   N2        1.0  0.0044434758037175  0.4037626749312173  0.5804699898615553  1.0000
  C   C11       1.0  0.17010611148688332  0.5368700968540159  0.5898340137074582  1.0000
  C   C12       1.0  0.241827667427421  0.5434959567475657  0.5970654753540936  1.0000
  C   C13       1.0  0.38701348041559624  0.5299747827178449  0.7060682354582137  1.0000
  N   N3        1.0  0.4440058292291367  0.5931667733851875  0.6856774904986112  1.0000
  C   C14       1.0  0.4878234498974677  0.583881482465822  0.5725683171556106  1.0000
  H   H1        1.0  0.49609974248978206  0.2517511247618378  0.5454474654056278  1.0000
  H   H2        1.0  0.3731077322239385  0.2873384928721634  0.4920368945099254  1.0000
  H   H3        1.0  0.2783923355041636  0.217883100794803  0.6233025434204686  1.0000
  H   H4        1.0  0.1526092246071394  0.20719618503439707  0.608998589299359  1.0000
  H   H5        1.0  0.1399845655565262  0.6261027341270906  0.5811442491314855  1.0000
  H   H6        1.0  0.2659556429123686  0.6381104924334366  0.5931829041122796  1.0000
  H   H7        1.0  0.3570299026812516  0.5503748949846485  0.7904389438958499  1.0000
  H   H8        1.0  0.5305895418351618  0.6541777167157261  0.5783465942122037  1.0000
  H   H9        1.0  0.4581440677350583  0.6119621567274014  0.48192898003743045  1.0000
  C   C15       1.0  0.8261024419458508  0.025455302036369476  0.578159743119671  1.0000
  C   C16       1.0  0.7672755032811558  0.03118013931598229  0.4978921460469321  1.0000
  C   C17       1.0  0.738329215737332  0.9170645290570256  0.4574745267061533  1.0000
  C   C18       1.0  0.7674967857126083  0.7960438376222431  0.49784095716082577  1.0000
  C   C19       1.0  0.8262328000555751  0.7880000563552284  0.5782529759393771  1.0000
  C   C20       1.0  0.8552681173102837  0.9033632683992703  0.6179108456872011  1.0000
  S   S1        1.0  0.6636584584294375  0.9258115047459189  0.35391596701720296  1.0000
  C   C21       1.0  0.7142195723021085  0.9334180188364427  0.20813904442142084  1.0000
  O   O1        1.0  0.7308020780391166  0.827859577977857  0.16200053800390624  1.0000
  C   C22       1.0  0.7369005961772851  0.05918592468081929  0.14293084956072422  1.0000
  C   C23       1.0  0.785529070296977  0.060683413313672885  0.04204432078265996  1.0000
  C   C24       1.0  0.8076320392915146  0.1786321224384675  0.9806031891362168  1.0000
  C   C25       1.0  0.7814785295157444  0.29631674491701787  0.018771164605311474  1.0000
  C   C26       1.0  0.7330567735813052  0.29628797394971373  0.11830729407833251  1.0000
  C   C27       1.0  0.7107245279741509  0.17864682197509896  0.18006567664458473  1.0000
  H   H10       1.0  0.9369046756011284  0.22197006132322072  0.7296225013076025  1.0000
  H   H11       1.0  0.7438639643117073  0.12408250069217486  0.4663186494706457  1.0000
  H   H12       1.0  0.7443068255610592  0.7086688218539114  0.46578175487551565  1.0000
  H   H13       1.0  0.9006198383923322  0.8980295019686457  0.6797884855283349  1.0000
  H   H14       1.0  0.8486841591157233  0.45762518911518535  0.6085050427893886  1.0000
  H   H15       1.0  0.8068072360599292  0.9707546917759396  0.011017908183331038  1.0000
  H   H16       1.0  0.8451509303614163  0.17873639608004632  0.9033839384050615  1.0000
  H   H17       1.0  0.79866874384793  0.3875199148384496  0.9711161687306489  1.0000
  H   H18       1.0  0.7126800436741025  0.3875840185700412  0.14758454461620163  1.0000
  H   H19       1.0  0.6728024545272407  0.18193662202245098  0.25614746847336956  1.0000
  C   C28       1.0  0.8261138952778407  0.40660806357843016  0.196838768066242  1.0000
  C   C29       1.0  0.7607953804976648  0.3490297232422128  0.19928793409108558  1.0000
  C   C30       1.0  0.7275541943221043  0.3213167765517042  0.08334809796207066  1.0000
  C   C31       1.0  0.7609891570495304  0.3491900135323456  0.9640361204680707  1.0000
  C   C32       1.0  0.8262213333420673  0.4068472701660928  0.9595739396737439  1.0000
  C   C33       1.0  0.8583508499205158  0.43548011921727414  0.07650857964644309  1.0000
  C   C34       1.0  0.6589291247484318  0.2591775768854694  0.0882697755081514  1.0000
  O   O2        1.0  0.6448591459093354  0.1802243939599728  0.18397773296552056  1.0000
  C   C35       1.0  0.6062684599783755  0.28659974349545103  0.9846878285170777  1.0000
  C   C36       1.0  0.6009987990229578  0.41003047964256667  0.9167821600747375  1.0000
  C   C37       1.0  0.5506444713172262  0.43504317674996185  0.82044850878916  1.0000
  C   C38       1.0  0.5043476142631901  0.33817361581900096  0.7907986586253184  1.0000
  C   C39       1.0  0.5088937685613377  0.21494844121728218  0.8596133567215984  1.0000
  C   C40       1.0  0.5592419090543602  0.1898086785999873  0.9560193189915234  1.0000
  O   O3        1.0  0.4548252517787279  0.3681512381668324  0.6931872335773521  1.0000
  C   C41       1.0  0.4046466276355172  0.27924749883589395  0.6531651116148329  1.0000
  H   H20       1.0  0.9494872517763256  0.5147651074726953  0.39952674355702356  1.0000
  H   H21       1.0  0.7353179304486782  0.326718693712192  0.2914949797159512  1.0000
  H   H22       1.0  0.7363903956335434  0.32452577250037407  0.8746659166906365  1.0000
  H   H23       1.0  0.9086728955412486  0.4799543110647988  0.07379911730085698  1.0000
  H   H24       1.0  0.8513611141821525  0.42848117411510134  0.6304273974904211  1.0000
  H   H25       1.0  0.6353048719906519  0.4876908854308555  0.9390524446423796  1.0000
  H   H26       1.0  0.5473827119664086  0.5305339902659996  0.768854811575475  1.0000
  H   H27       1.0  0.47379751817673266  0.1379868234693855  0.8394298719397999  1.0000
  H   H28       1.0  0.5618351893948222  0.09414717714352361  0.007491293068825122  1.0000
  H   H29       1.0  0.37233863096401754  0.3284691302975482  0.574676306278981  1.0000
  H   H30       1.0  0.3710453900128558  0.24760201327252007  0.7362832038286484  1.0000
  H   H31       1.0  0.4302789877522775  0.19352099493027297  0.6148253206274754  1.0000
  Zn  Zn1       1.0  0.750780185948751  0.40798513733253716  0.577248613362275  1.0000
  Zn  Zn2       1.0  0.9015484446697857  0.4054696952344514  0.579163397049901  1.0000
  C   C42       1.0  0.8261985969446082  0.4016296550691385  0.815399994824767  1.0000
  C   C43       1.0  0.8261316803565848  0.41182678829548824  0.3410121641630306  1.0000
  C   C44       1.0  0.8262038701745208  0.6438612929372998  0.5730601319005499  1.0000
  C   C45       1.0  0.8261263554231317  0.16959359137938046  0.5833520954815843  1.0000
  O   O4        1.0  0.8833534166725702  0.412617978436008  0.3901247226714737  1.0000
  O   O5        1.0  0.8834064802377809  0.39892832297498315  0.767740338865708  1.0000
  O   O6        1.0  0.8834099673318926  0.5945334472826473  0.5720491753289423  1.0000
  O   O7        1.0  0.8833498781193376  0.217012864244146  0.5858157881816617  1.0000
  O   O8        1.0  0.768978701049391  0.5964419691826515  0.5705962215702618  1.0000
  O   O9        1.0  0.7689752142090116  0.400838404782742  0.7662873160524382  1.0000
  O   O10       1.0  0.7689221504619109  0.4145280145081953  0.3886701384580431  1.0000
  O   O11       1.0  0.7689186119179912  0.21892289106033913  0.5843613013345561  1.0000
