data_image0
_chemical_formula_structural       NC11NC3H8C6SCOC6H10C6NCOC6H11Zn2C4O8
_chemical_formula_sum              "N3 C44 H29 S1 O10 Zn2"
_cell_length_a       17.807433833752565
_cell_length_b       10.302038109246572
_cell_length_c       10.299662537453274
_cell_angle_alpha    85.5465134691658
_cell_angle_beta     88.51134067563711
_cell_angle_gamma    90.7032530140906

_space_group_name_H-M_alt    "P 1"
_space_group_IT_number       1

loop_
  _space_group_symop_operation_xyz
  'x, y, z'

loop_
  _atom_site_type_symbol
  _atom_site_label
  _atom_site_symmetry_multiplicity
  _atom_site_fract_x
  _atom_site_fract_y
  _atom_site_fract_z
  _atom_site_occupancy
  N   N1        1.0  0.7078783033166679  0.43868607511446833  0.5348079434008439  1.0000
  C   C1        1.0  0.6570434065298268  0.4039426259362362  0.6013671529882443  1.0000
  C   C2        1.0  0.5937996709772917  0.3607246401339488  0.6841583156319662  1.0000
  C   C3        1.0  0.6054984474089796  0.29714348218575415  0.8068710050732213  1.0000
  C   C4        1.0  0.5441627253658524  0.2556057303231696  0.887378407490454  1.0000
  C   C5        1.0  0.47097373473217485  0.27733570189946  0.8458138885228248  1.0000
  C   C6        1.0  0.4582982556342383  0.3410715470402419  0.7226410130331176  1.0000
  C   C7        1.0  0.3805416676797593  0.3641323649373849  0.6782959595987503  1.0000
  C   C8        1.0  0.3617723437805624  0.3473125642802197  0.5487111507020281  1.0000
  C   C9        1.0  0.2885534093108431  0.36900383347145627  0.5071025545713765  1.0000
  C   C10       1.0  0.23316089463111664  0.4078336625340342  0.5942585183040938  1.0000
  C   C11       1.0  0.1578055446247865  0.4301837507138122  0.5512886857496877  1.0000
  N   N2        1.0  0.0972252159318306  0.44815156120633026  0.5167440677076174  1.0000
  C   C12       1.0  0.25123876572793813  0.4248641891548124  0.7233122099187594  1.0000
  C   C13       1.0  0.3244048976398384  0.40313790269394323  0.7651762355961658  1.0000
  C   C14       1.0  0.520491286504595  0.3826047289093497  0.6421500261684812  1.0000
  H   H1        1.0  0.6619565020206293  0.2797206375761394  0.840234966952879  1.0000
  H   H2        1.0  0.5533388555919543  0.20612969795163738  0.9821100662808386  1.0000
  H   H3        1.0  0.42431949281513587  0.2427641076383471  0.9092497793235146  1.0000
  H   H4        1.0  0.4034540151076996  0.31570391238413475  0.4799894409825729  1.0000
  H   H5        1.0  0.2751227717664991  0.3551637951478055  0.4070644935990142  1.0000
  H   H6        1.0  0.20884015160258904  0.45525029648202664  0.791518988833346  1.0000
  H   H7        1.0  0.3373074159907444  0.4185230525016048  0.8650317323153753  1.0000
  H   H8        1.0  0.5120138567608459  0.4334427035353612  0.5476528581175422  1.0000
  C   C15       1.0  0.9024842005545832  0.06213875148834158  0.5257389565377653  1.0000
  C   C16       1.0  0.8382706441518765  0.06537685563862472  0.44919749982264645  1.0000
  C   C17       1.0  0.806674092949244  0.9500382645129372  0.41061332474504364  1.0000
  C   C18       1.0  0.8385122910140452  0.8302501521522735  0.44913228160697805  1.0000
  C   C19       1.0  0.9026265196907906  0.8246890748260722  0.5258239292316635  1.0000
  C   C20       1.0  0.9343205078967151  0.9412796404951332  0.5636426827141419  1.0000
  S   S1        1.0  0.7251664280357798  0.955629913382829  0.3117844019681797  1.0000
  C   C21       1.0  0.780419450194237  0.9655222397563259  0.16279690932845337  1.0000
  O   O1        1.0  0.798540275012509  0.8607123197578438  0.11560549592259717  1.0000
  C   C22       1.0  0.8052051462785403  0.09231540156970741  0.09614850357274385  1.0000
  C   C23       1.0  0.8583348043864273  0.09598414479659789  0.9921755883606438  1.0000
  C   C24       1.0  0.8824881959455599  0.21493052440263738  0.9293310297817312  1.0000
  C   C25       1.0  0.853918504025186  0.33145852193308944  0.9691583358687761  1.0000
  C   C26       1.0  0.8010149652596688  0.3292683634710263  0.07176769734297284  1.0000
  C   C27       1.0  0.7766111204772154  0.21061941337686862  0.13494405283638278  1.0000
  H   H9        1.0  0.023432203878493763  0.26333715313655937  0.6701834323076186  1.0000
  H   H10       1.0  0.8127152688883821  0.15728930772067873  0.41910692066628763  1.0000
  H   H11       1.0  0.81319901203632  0.741895138536582  0.41854193245225924  1.0000
  H   H12       1.0  0.9838249598384432  0.9378629849868467  0.622647711986916  1.0000
  H   H13       1.0  0.9271337973334292  0.4952635359504632  0.5546538967234629  1.0000
  H   H14       1.0  0.881578737783079  0.006996420360301681  0.9597991662832741  1.0000
  H   H15       1.0  0.9234797585874343  0.21670958338434776  0.8497305265350503  1.0000
  H   H16       1.0  0.8727033626232107  0.42343752362257314  0.920411853009397  1.0000
  H   H17       1.0  0.778755872052467  0.4196635763197971  0.10233774889254588  1.0000
  H   H18       1.0  0.7351796271948474  0.21221779084042236  0.21343261318215312  1.0000
  C   C28       1.0  0.902607089219266  0.4435556585726317  0.14440306383399348  1.0000
  C   C29       1.0  0.9793035991459355  0.47778706523978176  0.13703459535328855  1.0000
  C   C30       1.0  0.018160415595220192  0.4931533455398853  0.016628882474110318  1.0000
  C   C31       1.0  0.9791720823978404  0.4774738688216542  0.9018973633445615  1.0000
  C   C32       1.0  0.9025036275829033  0.44327214156597905  0.9071597865738994  1.0000
  C   C33       1.0  0.8647180497502239  0.4260632608660744  0.028957937919194654  1.0000
  N   N3        1.0  0.09639869650226762  0.5301325950413529  0.012519617128252003  1.0000
  C   C34       1.0  0.14956193632671178  0.49158455141221724  0.9158352982794602  1.0000
  O   O2        1.0  0.13584115037065803  0.39271635048764963  0.8549085335603146  1.0000
  C   C35       1.0  0.22170518852981047  0.5636503233607146  0.8901461846140934  1.0000
  C   C36       1.0  0.23079256715971574  0.6919108624315693  0.9260937561915656  1.0000
  C   C37       1.0  0.29895966031041143  0.7591079408409411  0.9007483896331032  1.0000
  C   C38       1.0  0.35858585512576324  0.6995451050678931  0.8389998465934574  1.0000
  C   C39       1.0  0.35010836168373083  0.572745430269707  0.802018184802443  1.0000
  C   C40       1.0  0.2820692766646691  0.505094541076931  0.8270284780410422  1.0000
  H   H19       1.0  0.7577589008570642  0.3801854263798301  0.3654810389131724  1.0000
  H   H20       1.0  0.009406051089904999  0.4917349010057648  0.2250599406853171  1.0000
  H   H21       1.0  0.008273341255409461  0.49414145859627934  0.8084359126951028  1.0000
  H   H22       1.0  0.805596056817155  0.39965781445620063  0.033773972368579486  1.0000
  H   H23       1.0  0.8728513665676876  0.4318267876615214  0.5816106554376064  1.0000
  H   H24       1.0  0.11691075958649111  0.5778238018291377  0.0904962075361484  1.0000
  H   H25       1.0  0.18515372201903646  0.7413244681605997  0.971991108919676  1.0000
  H   H26       1.0  0.30544081122442024  0.8577215042758961  0.9285753686362428  1.0000
  H   H27       1.0  0.4112729557016521  0.7517919339686987  0.8194440081676504  1.0000
  H   H28       1.0  0.39630315645781655  0.5267618336838213  0.7538984680070326  1.0000
  H   H29       1.0  0.2768755047533391  0.4067348431842055  0.797766759840504  1.0000
  Zn  Zn1       1.0  0.8202354100762892  0.4414141333228494  0.5296025833943259  1.0000
  Zn  Zn2       1.0  0.9848680909942021  0.4454128819431913  0.5219600128073121  1.0000
  C   C41       1.0  0.9025205235702598  0.43815322871819196  0.7629819421939423  1.0000
  C   C42       1.0  0.9025847755723921  0.44867546840485306  0.2885806982031687  1.0000
  C   C43       1.0  0.9025964325422792  0.6805526515949827  0.5206327258394334  1.0000
  C   C44       1.0  0.9025088101222644  0.20627448419843653  0.5309299862321251  1.0000
  O   O3        1.0  0.9650545302695921  0.45190556319371544  0.3340677130372329  1.0000
  O   O4        1.0  0.9650031642167709  0.43795711225192124  0.7116940191569672  1.0000
  O   O5        1.0  0.9650636192653254  0.6336976908254259  0.5159953515383886  1.0000
  O   O6        1.0  0.9649940190580002  0.2561649925799616  0.5297662858876571  1.0000
  O   O7        1.0  0.8401094258314382  0.6306620213229186  0.5217963129151844  1.0000
  O   O8        1.0  0.8400489710799393  0.4349230027158797  0.7174949114605189  1.0000
  O   O9        1.0  0.840100337386126  0.4488714089938144  0.3398670438940443  1.0000
  O   O10       1.0  0.8400398261565186  0.2531308290571488  0.5355657141138257  1.0000
