data_image0
_chemical_formula_structural       NC10NC5H10C7OC6OCH12C7OC6OCH12Zn2C4O8
_chemical_formula_sum              "N2 C47 H34 O12 Zn2"
_cell_length_a       19.4436361288709
_cell_length_b       10.299359160628079
_cell_length_c       10.299362532796529
_cell_angle_alpha    85.5843088683533
_cell_angle_beta     89.71996928525027
_cell_angle_gamma    89.44098980803524

_space_group_name_H-M_alt    "P 1"
_space_group_IT_number       1

loop_
  _space_group_symop_operation_xyz
  'x, y, z'

loop_
  _atom_site_type_symbol
  _atom_site_label
  _atom_site_symmetry_multiplicity
  _atom_site_fract_x
  _atom_site_fract_y
  _atom_site_fract_z
  _atom_site_occupancy
  N   N1        1.0  0.6477398264752914  0.40889813333409175  0.5622749628685861  1.0000
  C   C1        1.0  0.5889088433745203  0.41880200874288986  0.5766601013518304  1.0000
  C   C2        1.0  0.5155857463271102  0.43115347577918084  0.5946538695286143  1.0000
  C   C3        1.0  0.4733763407625566  0.3991440967367561  0.499976585521583  1.0000
  C   C4        1.0  0.3974749046637667  0.40958322478592635  0.5053059351716487  1.0000
  C   C5        1.0  0.3577517126187424  0.3848484486163959  0.612374819678734  1.0000
  C   C6        1.0  0.2816294112586517  0.38876349408149435  0.599415984324722  1.0000
  C   C7        1.0  0.2410970570203917  0.44643756838891346  0.6931934066157555  1.0000
  C   C8        1.0  0.1694323264600258  0.45007404880357016  0.6826500042811954  1.0000
  C   C9        1.0  0.137305168875607  0.3956404733520287  0.5786156558376625  1.0000
  C   C10       1.0  0.0635111756209439  0.3993381784057586  0.567916979796742  1.0000
  N   N2        1.0  0.0041858102127555  0.4023109392556239  0.5593159535758379  1.0000
  C   C11       1.0  0.1771125610130433  0.3372593456555597  0.48522137894186446  1.0000
  C   C12       1.0  0.24879365954799132  0.33356860864769367  0.49551299822431805  1.0000
  C   C13       1.0  0.385902020877439  0.3444035679824413  0.7434638427950468  1.0000
  C   C14       1.0  0.4445839010826977  0.3875320727142908  0.7907114910664577  1.0000
  C   C15       1.0  0.488796955278707  0.48538242698029066  0.7163565547331654  1.0000
  H   H1        1.0  0.49545147919957083  0.3700151688696425  0.4096665476215997  1.0000
  H   H2        1.0  0.3727627590636778  0.4320665038648288  0.4121507931284436  1.0000
  H   H3        1.0  0.2649924602928687  0.4897393138995325  0.7740467571299778  1.0000
  H   H4        1.0  0.139111318785302  0.4953985538325931  0.7555761760157869  1.0000
  H   H5        1.0  0.1527453818783962  0.29415330280371  0.4047025342400463  1.0000
  H   H6        1.0  0.2784487222933926  0.28600076716626743  0.42328287746123494  1.0000
  H   H7        1.0  0.3549358914391779  0.2801935927645929  0.8077024824344174  1.0000
  H   H8        1.0  0.45974608625278124  0.3534766483414373  0.888641258799693  1.0000
  H   H9        1.0  0.458701817108316  0.5760949160061848  0.6911160377626142  1.0000
  H   H10       1.0  0.5320998151698143  0.5109767587130938  0.779444436963743  1.0000
  C   C16       1.0  0.8258851673593339  0.02422767421018923  0.5607646390356782  1.0000
  C   C17       1.0  0.7689852255164498  0.030533571043524166  0.4768409484839864  1.0000
  C   C18       1.0  0.7407793456855074  0.9167200391128336  0.4334149179797786  1.0000
  C   C19       1.0  0.7691490912481482  0.7952691099582752  0.47709469166485285  1.0000
  C   C20       1.0  0.8260470537544197  0.7869712531725713  0.560837540776103  1.0000
  C   C21       1.0  0.8541823739046829  0.9020409298196065  0.6019786580855027  1.0000
  C   C22       1.0  0.6802210969492513  0.9255241342386085  0.34598509923304155  1.0000
  O   O1        1.0  0.6365150951399313  0.015208150146571953  0.3579143202563444  1.0000
  C   C23       1.0  0.6692430498775999  0.8326573003938503  0.24502984021441487  1.0000
  C   C24       1.0  0.725176843215581  0.7782546478077068  0.18051105007439583  1.0000
  C   C25       1.0  0.7141085194801104  0.6920423344046519  0.08452217777345128  1.0000
  C   C26       1.0  0.6472871659011902  0.6593519466391958  0.05031455978180088  1.0000
  C   C27       1.0  0.5911216825542015  0.7147932441173622  0.1135235286702887  1.0000
  C   C28       1.0  0.6021271204867436  0.8010656236137356  0.20955934398514597  1.0000
  O   O2        1.0  0.6389432701703479  0.5722486384861595  0.9534865866937783  1.0000
  C   C29       1.0  0.5741218501553187  0.5305879954101422  0.9091570998401641  1.0000
  H   H11       1.0  0.9330755972905578  0.2195697963877139  0.7195483509125837  1.0000
  H   H12       1.0  0.7468610389953059  0.12426010870996618  0.4440401845849571  1.0000
  H   H13       1.0  0.7463123123195539  0.7070443944212214  0.4468331402475916  1.0000
  H   H14       1.0  0.8980730867335556  0.8963721362697562  0.6665823255713814  1.0000
  H   H15       1.0  0.8476976863233068  0.45628603271954604  0.593375573168617  1.0000
  H   H16       1.0  0.7774702105432447  0.8033835312455424  0.20320781448638248  1.0000
  H   H17       1.0  0.7577515273993767  0.6507729690747046  0.03597915064032953  1.0000
  H   H18       1.0  0.5387993416461995  0.6919413696376407  0.08918240717037751  1.0000
  H   H19       1.0  0.5580995710331426  0.8422959713383681  0.2570548136045241  1.0000
  H   H20       1.0  0.5826967171608208  0.4620100686799194  0.8326119399729794  1.0000
  H   H21       1.0  0.5438939332695677  0.6154815001629024  0.8668984693978716  1.0000
  H   H22       1.0  0.5452615582242444  0.4795775881109265  0.9909315065379234  1.0000
  C   C30       1.0  0.8259124046063451  0.405479941416637  0.17943462412784528  1.0000
  C   C31       1.0  0.7606120428489513  0.3480048045273445  0.18325864887612298  1.0000
  C   C32       1.0  0.7273801607369006  0.3203447939790398  0.06801845416740493  1.0000
  C   C33       1.0  0.7608057651114178  0.34816478590194344  0.9480027567844744  1.0000
  C   C34       1.0  0.8260198187971228  0.40571901598355287  0.9421675309862039  1.0000
  C   C35       1.0  0.8581404189544168  0.4343011814190276  0.058425884691253094  1.0000
  C   C36       1.0  0.6587740949452495  0.25831359229013784  0.07438462655625866  1.0000
  O   O3        1.0  0.6447052698198639  0.17936526234818473  0.17039027272187068  1.0000
  C   C37       1.0  0.6061311239793687  0.28583824464479  0.9719094044760772  1.0000
  C   C38       1.0  0.6008682325065238  0.40931074999207073  0.9041116979839754  1.0000
  C   C39       1.0  0.5505307736276692  0.43442112879950234  0.8088363291606728  1.0000
  C   C40       1.0  0.5042444612026625  0.3376100789888372  0.7801622539182294  1.0000
  C   C41       1.0  0.5087840820231421  0.21434449854037396  0.8488841993473386  1.0000
  C   C42       1.0  0.5591153503716079  0.1891070322437356  0.944232012194155  1.0000
  O   O4        1.0  0.454738911601662  0.367685173468391  0.6835915020011734  1.0000
  C   C43       1.0  0.4045723825700096  0.27884905198592125  0.6446265975655932  1.0000
  H   H23       1.0  0.9492514490304204  0.5134418992317222  0.37952578558773187  1.0000
  H   H24       1.0  0.7351416794804411  0.32573406792502824  0.2760019539727534  1.0000
  H   H25       1.0  0.736213716620895  0.32353863274378214  0.8591503895802202  1.0000
  H   H26       1.0  0.9084484840763792  0.47869589438067517  0.054657214593806014  1.0000
  H   H27       1.0  0.8511525910824054  0.42731306143626036  0.61249184553178  1.0000
  H   H28       1.0  0.6351667354268075  0.4869293342540719  0.9256587954495292  1.0000
  H   H29       1.0  0.547273995135788  0.529942781195267  0.7573090163805145  1.0000
  H   H30       1.0  0.473695679083638  0.13742631514928982  0.8294405015291937  1.0000
  H   H31       1.0  0.5617038529714076  0.09341585740496106  0.9956516626755296  1.0000
  H   H32       1.0  0.3722765832058088  0.3281420194630076  0.5668160343178421  1.0000
  H   H33       1.0  0.3709803993334639  0.24725612746032977  0.7284519932101827  1.0000
  H   H34       1.0  0.43019313233579  0.19305376403687657  0.6057497837044732  1.0000
  Zn  Zn1       1.0  0.7506024393128915  0.4069937423277661  0.5614285684638085  1.0000
  Zn  Zn2       1.0  0.9013231881430396  0.4042047257075927  0.5601730280779647  1.0000
  C   C44       1.0  0.8259968734326854  0.4005000796228204  0.7979941846923104  1.0000
  C   C45       1.0  0.8259304002548599  0.4106999966499949  0.3236075257611586  1.0000
  C   C46       1.0  0.8260121783463177  0.6427949593359625  0.555648618900642  1.0000
  C   C47       1.0  0.8259150435893675  0.1684035575754006  0.5659531610703861  1.0000
  O   O5        1.0  0.8831341772496755  0.4113878117412255  0.3715167970106652  1.0000
  O   O6        1.0  0.8831866570986425  0.39769448559037834  0.7491316134039714  1.0000
  O   O7        1.0  0.8831982451472334  0.5933506798869781  0.5534358609442596  1.0000
  O   O8        1.0  0.8831225377585629  0.2157316276562189  0.5672124525256579  1.0000
  O   O9        1.0  0.7688030382637732  0.5954668413323063  0.5543891444377387  1.0000
  O   O10       1.0  0.7687914505334469  0.3998122073503243  0.7500848278015149  1.0000
  O   O11       1.0  0.7687389705007526  0.41350548775398566  0.3724684500129283  1.0000
  O   O12       1.0  0.7687273310185665  0.21784929441055167  0.5681642028942635  1.0000
