data_image0
_chemical_formula_structural       NC12NC2H8C7OC6OCH12C6SCOC6H10Zn2C4O8
_chemical_formula_sum              "N2 C45 H30 O11 S1 Zn2"
_cell_length_a       19.240039667572717
_cell_length_b       10.299359160628079
_cell_length_c       10.302041481415108
_cell_angle_alpha    85.54689826212588
_cell_angle_beta     89.99620935601247
_cell_angle_gamma    90.02126226386561

_space_group_name_H-M_alt    "P 1"
_space_group_IT_number       1

loop_
  _space_group_symop_operation_xyz
  'x, y, z'

loop_
  _atom_site_type_symbol
  _atom_site_label
  _atom_site_symmetry_multiplicity
  _atom_site_fract_x
  _atom_site_fract_y
  _atom_site_fract_z
  _atom_site_occupancy
  N   N1        1.0  0.6548102934219004  0.42180663775652705  0.567951923873709  1.0000
  C   C1        1.0  0.5946619246242099  0.4218067217683119  0.5679518419658109  1.0000
  C   C2        1.0  0.5198438875112177  0.42180683910461814  0.5679517047066149  1.0000
  C   C3        1.0  0.48335369834834385  0.3573039703051839  0.6713326575376484  1.0000
  C   C4        1.0  0.4106829251505734  0.3571930562404062  0.671419166008179  1.0000
  C   C5        1.0  0.37351165260035296  0.42180693175133865  0.5679514770865666  1.0000
  C   C6        1.0  0.4107160584675892  0.48642099418524865  0.46448398268928703  1.0000
  C   C7        1.0  0.4833867217824124  0.48630984457270476  0.46457061360179974  1.0000
  C   C8        1.0  0.2963065621484849  0.42180685312156707  0.5679513816807695  1.0000
  C   C9        1.0  0.259094768034534  0.3085287752777932  0.609797422658831  1.0000
  C   C10       1.0  0.1864241041266847  0.30863570989510825  0.6097061316815839  1.0000
  C   C11       1.0  0.14997427519746628  0.42180672392437457  0.5679514425600607  1.0000
  C   C12       1.0  0.07515623801109579  0.42180661009205234  0.5679516911515612  1.0000
  N   N2        1.0  0.0150079211434919  0.4218065691948072  0.5679518995203674  1.0000
  C   C13       1.0  0.1864719571418006  0.5349778138015122  0.5261967005696686  1.0000
  C   C14       1.0  0.2591426778775165  0.5350849286007875  0.5261052470577987  1.0000
  H   H1        1.0  0.5110557847469436  0.30736420987063284  0.7520496270691246  1.0000
  H   H2        1.0  0.3835769577843678  0.30805101034272964  0.7532515125909958  1.0000
  H   H3        1.0  0.3836354950528446  0.5355630671537457  0.38265158527273924  1.0000
  H   H4        1.0  0.5111144068171917  0.5362495046460942  0.38385391979246086  1.0000
  H   H5        1.0  0.2861692260093704  0.21936039104274552  0.6409459750064754  1.0000
  H   H6        1.0  0.1586905869157766  0.220366166382709  0.6418875528071528  1.0000
  H   H7        1.0  0.15877565089952828  0.6232473327713921  0.49401529398800204  1.0000
  H   H8        1.0  0.2862546987372072  0.6242533920299618  0.4949566499592297  1.0000
  C   C15       1.0  0.8348306582346513  0.04042833420071856  0.5679204134144815  1.0000
  C   C16       1.0  0.7773467313149763  0.04573799966474268  0.483542065265103  1.0000
  C   C17       1.0  0.7488516861848403  0.9314318206319658  0.4398910384279906  1.0000
  C   C18       1.0  0.7775122767334468  0.8104763997245593  0.4837971152869365  1.0000
  C   C19       1.0  0.8349942354119582  0.8031748561983509  0.567994643444107  1.0000
  C   C20       1.0  0.8634183816842644  0.918737373085181  0.6093606500376012  1.0000
  C   C21       1.0  0.6876715722261294  0.9391743952242684  0.3519769347055248  1.0000
  O   O1        1.0  0.6435035133466637  0.028043145588084073  0.36354092426263995  1.0000
  C   C22       1.0  0.6765958174160286  0.8461708755410375  0.25095170874566564  1.0000
  C   C23       1.0  0.7331296341529089  0.7928438402803736  0.18691064762392995  1.0000
  C   C24       1.0  0.7219617758708154  0.706489920050076  0.09085001897853306  1.0000
  C   C25       1.0  0.6544432499372342  0.672587440852179  0.0560949892010143  1.0000
  C   C26       1.0  0.5976755361772867  0.7269496986017233  0.11882458051582612  1.0000
  C   C27       1.0  0.6087798385746347  0.8133624923850927  0.21493162042978065  1.0000
  O   O2        1.0  0.6460286389967524  0.5853934082665165  0.9592180465913995  1.0000
  C   C28       1.0  0.5805328803315416  0.5425642519458969  0.9143598661024988  1.0000
  H   H9        1.0  0.9431211021581438  0.23764674904590777  0.7275604843739891  1.0000
  H   H10       1.0  0.7549955059539524  0.13907728722744328  0.45056455399632567  1.0000
  H   H11       1.0  0.7544405115505193  0.7218496059390151  0.4533523706062519  1.0000
  H   H12       1.0  0.9077595844265607  0.9138371257432192  0.6743150528949184  1.0000
  H   H13       1.0  0.8568669696388649  0.47286830922161643  0.6007055480256602  1.0000
  H   H14       1.0  0.7859693170282045  0.8189239562493261  0.21003666128610754  1.0000
  H   H15       1.0  0.7660726416785413  0.6660586398394112  0.042679368913123295  1.0000
  H   H16       1.0  0.5448068651034045  0.7031471334283667  0.09405431369767481  1.0000
  H   H17       1.0  0.5642805693473708  0.8537483369223032  0.26205174092352035  1.0000
  H   H18       1.0  0.5892115002825099  0.47419488240520186  0.8379019040244575  1.0000
  H   H19       1.0  0.5499943126399276  0.6269269885551496  0.871859213159313  1.0000
  H   H20       1.0  0.5513544335200689  0.4909670967345453  0.9958776232119635  1.0000
  C   C29       1.0  0.8349255015896409  0.4219308895109821  0.18667049049048567  1.0000
  C   C30       1.0  0.8668149562715579  0.5450321327820831  0.1757694857548482  1.0000
  C   C31       1.0  0.8829912032225319  0.6057596338640852  0.0533900786424828  1.0000
  C   C32       1.0  0.8668808328574578  0.544628260939394  0.9406640345297563  1.0000
  C   C33       1.0  0.8348994050714036  0.42167232472680083  0.9492445562537997  1.0000
  C   C34       1.0  0.8191385616783703  0.3609062672568091  0.07281738608128863  1.0000
  S   S1        1.0  0.9243495456736484  0.7622961307425233  0.040882764383058046  1.0000
  C   C35       1.0  0.009951413900391115  0.6924938089736292  0.04344437306460569  1.0000
  O   O3        1.0  0.037146476055818  0.6693205162710598  0.9363818491329909  1.0000
  C   C36       1.0  0.04825374251022585  0.6611503980614064  0.166965826812854  1.0000
  C   C37       1.0  0.10989417250939137  0.5874253231806554  0.16715091841034702  1.0000
  C   C38       1.0  0.14611251845215634  0.5565278589463685  0.2830999814419868  1.0000
  C   C39       1.0  0.1214280945560473  0.5988763611227126  0.4000416763059187  1.0000
  C   C40       1.0  0.060534630975824344  0.6724426214334898  0.4012368359347289  1.0000
  C   C41       1.0  0.024108912941927407  0.7037142289796576  0.2855872153130703  1.0000
  H   H21       1.0  0.774715324073714  0.1900196886889367  0.41452535215675357  1.0000
  H   H22       1.0  0.8793109783736989  0.5939610351779261  0.2620885769181791  1.0000
  H   H23       1.0  0.8796713753213243  0.5932256253780741  0.8466973932509538  1.0000
  H   H24       1.0  0.7945556785341233  0.2660037635038133  0.08030072899017959  1.0000
  H   H25       1.0  0.8229298118183627  0.37475460958013107  0.6251807296095109  1.0000
  H   H26       1.0  0.1299631797423646  0.552966625601832  0.07782891123773727  1.0000
  H   H27       1.0  0.19334503963283534  0.49954206198019135  0.28224741435843437  1.0000
  H   H28       1.0  0.1495280072298748  0.5748246274283513  0.48970140125498673  1.0000
  H   H29       1.0  0.0415445563881911  0.7055142490474982  0.49191274607228563  1.0000
  H   H30       1.0  0.9774040347285703  0.7616421044848387  0.2896671324576381  1.0000
  Zn  Zn1       1.0  0.7587555562568734  0.4218031481454896  0.5679594033263515  1.0000
  Zn  Zn2       1.0  0.9110626744448668  0.4217994614729639  0.5679550156610738  1.0000
  C   C42       1.0  0.8349016597012305  0.4165474094356165  0.805101200699287  1.0000
  C   C43       1.0  0.834918234536546  0.4270568387591691  0.33081334583868927  1.0000
  C   C44       1.0  0.834959909028772  0.6590013169829527  0.5628065188943046  1.0000
  C   C45       1.0  0.8348599329002487  0.18460137084874928  0.5731080967171622  1.0000
  O   O4        1.0  0.892715552029234  0.42877008919950943  0.37918733920758796  1.0000
  O   O5        1.0  0.8927019205691041  0.41483038127630856  0.7567235033329169  1.0000
  O   O6        1.0  0.8927481784231383  0.6106149774300613  0.5610688336541145  1.0000
  O   O7        1.0  0.8926692422084241  0.23298550237047233  0.5748419115350338  1.0000
  O   O8        1.0  0.7771489365183721  0.6106171072506554  0.5610725074470593  1.0000
  O   O9        1.0  0.7771026789981501  0.41483407146266105  0.756727108047039  1.0000
  O   O10       1.0  0.7771163105482656  0.42877373465805224  0.37918938285192394  1.0000
  O   O11       1.0  0.7770700007192874  0.23298913850697356  0.5748440525253948  1.0000
