data_image0
_chemical_formula_structural       NC12NC2H8C7OC3FC3H9C7OC3NC3H11Zn2C4O8
_chemical_formula_sum              "N3 C44 H28 O10 F1 Zn2"
_cell_length_a       19.240039667572717
_cell_length_b       10.29937835083307
_cell_length_c       10.298749378158432
_cell_angle_alpha    85.54775683836141
_cell_angle_beta     90.00886307587598
_cell_angle_gamma    90.0188676237696

_space_group_name_H-M_alt    "P 1"
_space_group_IT_number       1

loop_
  _space_group_symop_operation_xyz
  'x, y, z'

loop_
  _atom_site_type_symbol
  _atom_site_label
  _atom_site_symmetry_multiplicity
  _atom_site_fract_x
  _atom_site_fract_y
  _atom_site_fract_z
  _atom_site_occupancy
  N   N1        1.0  0.6546090500228188  0.4214512132641637  0.567167644067893  1.0000
  C   C1        1.0  0.5944606812135576  0.4214512972556663  0.5671675621144634  1.0000
  C   C2        1.0  0.5196426440817007  0.42145141455757384  0.5671674247848393  1.0000
  C   C3        1.0  0.48316612894293753  0.3569748728027238  0.6705954441512154  1.0000
  C   C4        1.0  0.4104953684623608  0.35686397977005857  0.6706820062662664  1.0000
  C   C5        1.0  0.37331040914183433  0.4214515071454632  0.5671671970735266  1.0000
  C   C6        1.0  0.4105011282575915  0.4860392214987872  0.4636525824164732  1.0000
  C   C7        1.0  0.48317180430936707  0.48592809294674777  0.46373926706910806  1.0000
  C   C8        1.0  0.2961053186804407  0.42145142848897343  0.5671671016588933  1.0000
  C   C9        1.0  0.2589010112007709  0.3081824790383596  0.6090540244127793  1.0000
  C   C10       1.0  0.186230334099066  0.308289391283572  0.6089626793575711  1.0000
  C   C11       1.0  0.14977303173951656  0.42145129930568515  0.5671671625887447  1.0000
  C   C12       1.0  0.07495499458510278  0.42145118553739325  0.5671674112830856  1.0000
  N   N2        1.0  0.014806677743064298  0.4214511446947735  0.56716761972444  1.0000
  C   C13       1.0  0.18626324024556756  0.5346132831629573  0.5253715929162455  1.0000
  C   C14       1.0  0.2589339477641661  0.53472037555012  0.5252800852326889  1.0000
  H   H1        1.0  0.5108788821838255  0.30705567519452504  0.7513490561671499  1.0000
  H   H2        1.0  0.38340018202468285  0.3077428069258301  0.7525511290711326  1.0000
  H   H3        1.0  0.38340978390769953  0.5351604214008097  0.38178340875589556  1.0000
  H   H4        1.0  0.510888822536723  0.535847190265256  0.3829859308828907  1.0000
  H   H5        1.0  0.2859811504942939  0.21902080462107776  0.6402342218314294  1.0000
  H   H6        1.0  0.1585026002682596  0.22002684767477798  0.6411758292945968  1.0000
  H   H7        1.0  0.1585611506254635  0.6228758022326655  0.49315845753361676  1.0000
  H   H8        1.0  0.286040287298103  0.6238821291510321  0.49409984302989995  1.0000
  C   C15       1.0  0.8346379502424416  0.040066215474892086  0.5672316358148062  1.0000
  C   C16       1.0  0.7621208551342283  0.040075274129820704  0.5512055136077638  1.0000
  C   C17       1.0  0.7254571150161069  0.9227919024684027  0.5445998558298955  1.0000
  C   C18       1.0  0.7622908020374527  0.8048312705933812  0.5512123894073084  1.0000
  C   C19       1.0  0.8347844368125363  0.8028261987563841  0.5671148322745885  1.0000
  C   C20       1.0  0.8705171412704353  0.920963685698194  0.5753744018258684  1.0000
  C   C21       1.0  0.6489698349465098  0.9227639630509242  0.5263040623511954  1.0000
  O   O1        1.0  0.6221186187304352  0.8380793733813742  0.45963745441079973  1.0000
  C   C22       1.0  0.6029436595641817  0.018706520505286983  0.583647812857373  1.0000
  C   C23       1.0  0.5410263925498728  0.05871023950962284  0.5198616060328933  1.0000
  C   C24       1.0  0.4968806844814204  0.14796239601209416  0.5739270613167955  1.0000
  F   F1        1.0  0.43757304640128575  0.186658096064809  0.511202303609231  1.0000
  C   C25       1.0  0.5138070236970956  0.19724879080678015  0.6925421171697919  1.0000
  C   C26       1.0  0.5747265982699191  0.1569926177280696  0.757542989341714  1.0000
  C   C27       1.0  0.6190160526437469  0.06781203375912814  0.7038822802585707  1.0000
  H   H9        1.0  0.9716074167895357  0.2475239978015038  0.5954785646180472  1.0000
  H   H10       1.0  0.7341550630509789  0.13158748269097864  0.5423916416530783  1.0000
  H   H11       1.0  0.7341535491556042  0.714363215801062  0.5451595750721139  1.0000
  H   H12       1.0  0.9264224324968447  0.9201526988829322  0.5877286089252427  1.0000
  H   H13       1.0  0.862698501210743  0.4746842086448294  0.5721276668967317  1.0000
  H   H14       1.0  0.5271710132805028  0.021716447176268305  0.42769547858504375  1.0000
  H   H15       1.0  0.47961434185912155  0.26623314941377574  0.7344246262961454  1.0000
  H   H16       1.0  0.5875074991422289  0.19447355468105187  0.8499227052213751  1.0000
  H   H17       1.0  0.6653397178453432  0.036245473184602695  0.7570389112325435  1.0000
  C   C28       1.0  0.8346791504582003  0.42147419940138864  0.18577217029821314  1.0000
  C   C29       1.0  0.8726659145026316  0.538343724336845  0.1757345842760234  1.0000
  C   C30       1.0  0.8911771109743118  0.5982419654742741  0.05342008184347957  1.0000
  C   C31       1.0  0.8726686861180472  0.5383925877581006  0.9404905473721481  1.0000
  C   C32       1.0  0.8347432300991449  0.42141816476548444  0.948574288618163  1.0000
  C   C33       1.0  0.8158295064912018  0.36388184935762813  0.07163714527677523  1.0000
  C   C34       1.0  0.9318543446680067  0.7210149304936571  0.0427211400908194  1.0000
  O   O2        1.0  0.9752860510573899  0.7393584736594658  0.9513714104837749  1.0000
  C   C35       1.0  0.9232621418546633  0.8229699088018827  0.135595215207015  1.0000
  C   C36       1.0  0.8582446288572985  0.8455448480321637  0.1922960364655335  1.0000
  C   C37       1.0  0.8504889290370605  0.9430508597106426  0.27898138066386147  1.0000
  N   N3        1.0  0.7843216467110059  0.9649033930853572  0.3366501982225616  1.0000
  C   C38       1.0  0.9078545973304792  0.0193050756201667  0.3083673688527442  1.0000
  C   C39       1.0  0.9723247934311595  0.99868086732812  0.25120691483554847  1.0000
  C   C40       1.0  0.9800404999417025  0.9014865388966298  0.164898327549182  1.0000
  H   H18       1.0  0.7638237886358272  0.19963460802069344  0.412178838309325  1.0000
  H   H19       1.0  0.8885469669727072  0.5821913205577107  0.263274017807142  1.0000
  H   H20       1.0  0.8873352481638499  0.5839164069494269  0.8460772610611205  1.0000
  H   H21       1.0  0.7865518745990701  0.2737941415931442  0.07862252302290584  1.0000
  H   H22       1.0  0.763334753008083  0.20015758564882802  0.7565642540721154  1.0000
  H   H23       1.0  0.8133889918295724  0.7885353019566199  0.16826177650226493  1.0000
  H   H24       1.0  0.7412130759111569  0.9086290535088848  0.3154308187464434  1.0000
  H   H25       1.0  0.7779675017322332  0.03742473714050343  0.4011268169208253  1.0000
  H   H26       1.0  0.9025285478529378  0.09492250461771823  0.3750888552953042  1.0000
  H   H27       1.0  0.01643840787336126  0.05815032999248615  0.2738341542181333  1.0000
  H   H28       1.0  0.03052956952769259  0.8868412398387269  0.12190009975885219  1.0000
  Zn  Zn1       1.0  0.7585543138207315  0.42144772557848253  0.567175126630943  1.0000
  Zn  Zn2       1.0  0.9108614315722168  0.4214440376759685  0.567170738576966  1.0000
  C   C41       1.0  0.8347285884166674  0.4162548792486249  0.8043891494448168  1.0000
  C   C42       1.0  0.8346888204907185  0.4266385226447611  0.3299568429414206  1.0000
  C   C43       1.0  0.8347527461018901  0.6586486840894614  0.5619612979633237  1.0000
  C   C44       1.0  0.8346646105398476  0.1842431574318315  0.5723847639078332  1.0000
  O   O3        1.0  0.8924918221852027  0.428364651182189  0.37834487184780663  1.0000
  O   O4        1.0  0.8925231647291516  0.41452497194222704  0.7559974163794898  1.0000
  O   O5        1.0  0.8925418933105919  0.6102610347589597  0.56023521090656  1.0000
  O   O6        1.0  0.8924730416252614  0.23262859766447863  0.5741069799379352  1.0000
  O   O7        1.0  0.7769426517927421  0.6102631655926449  0.5602388852646396  1.0000
  O   O8        1.0  0.7769239235020053  0.4145286631506777  0.756001021247316  1.0000
  O   O9        1.0  0.7768925808643714  0.4283682972474281  0.37834691519026387  1.0000
  O   O10       1.0  0.7768738003079866  0.23263223443336822  0.5741091206578595  1.0000
