data_image0
_chemical_formula_structural       NC11NC3H8C7OC6H10C7OC4NC3H9Zn2C4O8
_chemical_formula_sum              "N3 C45 H27 O10 Zn2"
_cell_length_a       17.807433833752565
_cell_length_b       10.299379429549807
_cell_length_c       10.299375074045738
_cell_angle_alpha    85.51714373298503
_cell_angle_beta     88.51814048155188
_cell_angle_gamma    90.68187924927143

_space_group_name_H-M_alt    "P 1"
_space_group_IT_number       1

loop_
  _space_group_symop_operation_xyz
  'x, y, z'

loop_
  _atom_site_type_symbol
  _atom_site_label
  _atom_site_symmetry_multiplicity
  _atom_site_fract_x
  _atom_site_fract_y
  _atom_site_fract_z
  _atom_site_occupancy
  N   N1        1.0  0.7074783620014373  0.43911179566325464  0.5340521861153473  1.0000
  C   C1        1.0  0.6566552634875724  0.4043579681612306  0.6006304286608017  1.0000
  C   C2        1.0  0.5934262038074203  0.3611270725893434  0.6834452666594923  1.0000
  C   C3        1.0  0.6051466336304961  0.2975269192781065  0.8061928095419271  1.0000
  C   C4        1.0  0.5438250810687859  0.2559767566318416  0.8867229903097404  1.0000
  C   C5        1.0  0.47062871572902876  0.2777132190345375  0.8451465689663673  1.0000
  C   C6        1.0  0.4579315194640798  0.34146810625742785  0.7219387511865398  1.0000
  C   C7        1.0  0.38016708901609353  0.36453581324398887  0.6775810605269048  1.0000
  C   C8        1.0  0.3613923702829938  0.3477114938928696  0.5480014078193576  1.0000
  C   C9        1.0  0.2881660661351095  0.36940924271900744  0.5063809275498425  1.0000
  C   C10       1.0  0.2327714539795409  0.40825016598290964  0.5935196710773589  1.0000
  C   C11       1.0  0.1574085037682579  0.430606930905163  0.5505375909879526  1.0000
  N   N2        1.0  0.09682206507068772  0.4485801090028134  0.515983126835992  1.0000
  C   C12       1.0  0.2508546396050239  0.4252852746424083  0.7225680878685454  1.0000
  C   C13       1.0  0.3240281660145275  0.4035524974979938  0.7644440215912756  1.0000
  C   C14       1.0  0.5201103829307431  0.3830136975211613  0.6414249886669516  1.0000
  H   H1        1.0  0.6616106038062902  0.28009887027879454  0.8395663155644375  1.0000
  H   H2        1.0  0.5530180089789988  0.2064859452809389  0.9814817514922229  1.0000
  H   H3        1.0  0.4239860219377633  0.24313130651568615  0.9086013285079093  1.0000
  H   H4        1.0  0.4030759018041608  0.31609380402710574  0.47929377168864473  1.0000
  H   H5        1.0  0.2747314418205563  0.355565465633082  0.40634727457021924  1.0000
  H   H6        1.0  0.2084543843341044  0.45568006367652547  0.7907613912714293  1.0000
  H   H7        1.0  0.3369343370891918  0.4189418389342219  0.8642943335391  1.0000
  H   H8        1.0  0.5116158881982075  0.43386684907107975  0.5469000434469955  1.0000
  C   C15       1.0  0.9021619907326458  0.06245427481139587  0.5251711588132084  1.0000
  C   C16       1.0  0.9476950006011934  0.053631543972258555  0.6348082229032808  1.0000
  C   C17       1.0  0.9699562781493618  0.9319249123854717  0.6909898779890484  1.0000
  C   C18       1.0  0.9476035756986789  0.818407350576247  0.6345361721102427  1.0000
  C   C19       1.0  0.9021456193010257  0.8252278143028432  0.5248749988554275  1.0000
  C   C20       1.0  0.8795253226881009  0.9477274290575687  0.471033294803362  1.0000
  C   C21       1.0  0.01868824975306227  0.9225417585686061  0.8059305679413002  1.0000
  O   O1        1.0  0.06634831569983346  0.832909773144909  0.8160754098264036  1.0000
  C   C22       1.0  0.013348742211816145  0.014739358750782916  0.909367364901053  1.0000
  C   C23       1.0  0.07760450189852874  0.04574020422516689  0.9779508962872694  1.0000
  C   C24       1.0  0.07294473514314936  0.13134996974051938  0.07666346275768621  1.0000
  C   C25       1.0  0.00412464733952933  0.1859593151172967  0.10861675186625208  1.0000
  C   C26       1.0  0.9397535595502481  0.1546459651596983  0.04228276369508377  1.0000
  C   C27       1.0  0.9441116431955974  0.06910854846540504  0.9434965275532516  1.0000
  H   H9        1.0  0.8171865424211624  0.28653713093519917  0.3170746961457289  1.0000
  H   H10       1.0  0.9665898382032169  0.14166350679994366  0.6757700419716228  1.0000
  H   H11       1.0  0.9651874679778188  0.7245174578491445  0.6771590964406775  1.0000
  H   H12       1.0  0.8444231571969034  0.953725005628092  0.38651075949624025  1.0000
  H   H13       1.0  0.8852056370914408  0.500453364622386  0.4820917991517426  1.0000
  H   H14       1.0  0.13150045387190668  0.004613533966594918  0.9544014390057873  1.0000
  H   H15       1.0  0.12274088739875078  0.15531106303713194  0.1284507376704006  1.0000
  H   H16       1.0  0.0006201608207816456  0.252116212423912  0.18512351151838646  1.0000
  H   H17       1.0  0.8863408890407365  0.19622239178040846  0.06780969953437999  1.0000
  H   H18       1.0  0.89327776500451  0.04443615625060415  0.8949172873342088  1.0000
  C   C28       1.0  0.9021793369609161  0.44398402448398366  0.14363508196557895  1.0000
  C   C29       1.0  0.9600050243672412  0.5385066161028076  0.13247169173822293  1.0000
  C   C30       1.0  0.9885870333463471  0.5872472905289692  0.009610422443307565  1.0000
  C   C31       1.0  0.9598833939108364  0.5382659087248856  0.8972521128392179  1.0000
  C   C32       1.0  0.9021282436049344  0.44369808105291497  0.9064111200526739  1.0000
  C   C33       1.0  0.8734757015163378  0.3973523888591237  0.030071003860689727  1.0000
  C   C34       1.0  0.05018643067510986  0.686069826506057  0.9977362147658928  1.0000
  O   O2        1.0  0.0981956006450122  0.6825520530329827  0.9058750380514478  1.0000
  C   C35       1.0  0.057311263716472105  0.7888945627526058  0.08999209937547659  1.0000
  C   C36       1.0  0.12875130879979158  0.8371956160254377  0.1184150604190064  1.0000
  C   C37       1.0  0.1360291411104091  0.9353901192571954  0.20425588225928548  1.0000
  C   C38       1.0  0.209392825319336  0.9835286123933893  0.23362075932353754  1.0000
  N   N3        1.0  0.26836896246942166  0.022220920215216378  0.2572230530731634  1.0000
  C   C39       1.0  0.07187382979666568  0.9866840984912268  0.2614061322058481  1.0000
  C   C40       1.0  0.0006840121308657743  0.9404008977078628  0.23246982197740929  1.0000
  C   C41       1.0  0.9932567616155932  0.8424727610777707  0.14691138819032723  1.0000
  H   H19       1.0  0.7938455760077686  0.2641643127663824  0.3721004972212787  1.0000
  H   H20       1.0  0.983458655050465  0.5732802777639501  0.21955316515845302  1.0000
  H   H21       1.0  0.9822444364454147  0.57504766599938  0.802455089668705  1.0000
  H   H22       1.0  0.8288965714084091  0.3244817140430336  0.03787333190394926  1.0000
  H   H23       1.0  0.8803745605292468  0.4065801840808696  0.5825148185815912  1.0000
  H   H24       1.0  0.17869630352495358  0.797687720453935  0.0747323442805845  1.0000
  H   H25       1.0  0.07688377862699358  0.06268834369926335  0.3278232802819414  1.0000
  H   H26       1.0  0.9511132826676729  0.9808966497809559  0.2759859691278681  1.0000
  H   H27       1.0  0.9374561500338714  0.809720397594702  0.12420995231088616  1.0000
  Zn  Zn1       1.0  0.8198345437925989  0.44184066871316485  0.5288453321630482  1.0000
  Zn  Zn2       1.0  0.9844658680381732  0.445840611756001  0.5212005714550128  1.0000
  C   C42       1.0  0.9021363551495881  0.4385780803096915  0.762232173554295  1.0000
  C   C43       1.0  0.9021658544064083  0.44910488250866587  0.2878137734198061  1.0000
  C   C44       1.0  0.9021451893309725  0.6810492173116212  0.5197557354319957  1.0000
  C   C45       1.0  0.9021569640767253  0.20663218371984282  0.5302902839986552  1.0000
  O   O3        1.0  0.9646380592274373  0.4523357806994779  0.33330031471264876  1.0000
  O   O4        1.0  0.9646155161674765  0.4383820666949918  0.7109430622874358  1.0000
  O   O5        1.0  0.9646218075740549  0.6341805553210187  0.51514166152775  1.0000
  O   O6        1.0  0.9646317116496603  0.25653730003582864  0.5291016206978252  1.0000
  O   O7        1.0  0.8396686440005209  0.6311439790697699  0.5209442855221853  1.0000
  O   O8        1.0  0.8396623525616507  0.43534705086706915  0.716745616427271  1.0000
  O   O9        1.0  0.8396848957770923  0.4493007201995003  0.33910130738890554  1.0000
  O   O10       1.0  0.8396785481899232  0.25350223020990637  0.5349027107505413  1.0000
