data_image0
_chemical_formula_structural       NC12NC2H8C6NCOC6H11C6NCOC6H11Zn2C4O8
_chemical_formula_sum              "N4 C44 H30 O10 Zn2"
_cell_length_a       19.240039667572717
_cell_length_b       10.29965916528486
_cell_length_c       10.299662537453274
_cell_angle_alpha    85.55779495060091
_cell_angle_beta     89.98643935911937
_cell_angle_gamma    90.0154664442568

_space_group_name_H-M_alt    "P 1"
_space_group_IT_number       1

loop_
  _space_group_symop_operation_xyz
  'x, y, z'

loop_
  _atom_site_type_symbol
  _atom_site_label
  _atom_site_symmetry_multiplicity
  _atom_site_fract_x
  _atom_site_fract_y
  _atom_site_fract_z
  _atom_site_occupancy
  N   N1        1.0  0.654864017801716  0.42178317141249755  0.5679309700857531  1.0000
  C   C1        1.0  0.5947156490069526  0.42178325542281536  0.5679308881772489  1.0000
  C   C2        1.0  0.5198976119001358  0.42178337275774824  0.5679307509118732  1.0000
  C   C3        1.0  0.4834014779597499  0.3572804344199405  0.6713216156405566  1.0000
  C   C4        1.0  0.4107307028723659  0.35716952292990123  0.6714081198658359  1.0000
  C   C5        1.0  0.3735653770050354  0.42178346540690526  0.5679305232591279  1.0000
  C   C6        1.0  0.41077572952727237  0.486397594792499  0.4644531212632983  1.0000
  C   C7        1.0  0.4834463909540642  0.4862864477619713  0.46453974790724883  1.0000
  C   C8        1.0  0.2963602865661389  0.4217833867835863  0.5679304278137574  1.0000
  C   C9        1.0  0.2591508089768593  0.30850931162306017  0.6097612838363997  1.0000
  C   C10       1.0  0.1864801476109136  0.30861624399085263  0.6096699951123306  1.0000
  C   C11       1.0  0.1500279996165614  0.42178325759057045  0.5679304886787986  1.0000
  C   C12       1.0  0.07520996241365979  0.42178314375617276  0.5679307373032221  1.0000
  N   N2        1.0  0.015061645529245903  0.421783102854667  0.5679309457116313  1.0000
  C   C13       1.0  0.1865233624964799  0.5349503470362131  0.5261909293807672  1.0000
  C   C14       1.0  0.2591940857791779  0.5350574595824329  0.5260994781238393  1.0000
  H   H1        1.0  0.5110988999622121  0.30734060016469344  0.7520464171044483  1.0000
  H   H2        1.0  0.38361992604643885  0.30802733339315713  0.7532487342611329  1.0000
  H   H3        1.0  0.38369997557542396  0.5355398114003131  0.38261245602837235  1.0000
  H   H4        1.0  0.5111787403652428  0.5362261816525569  0.38381522220771425  1.0000
  H   H5        1.0  0.2862272539809004  0.2193441310366555  0.6408974652952841  1.0000
  H   H6        1.0  0.1587484744202965  0.22034983206848957  0.6418394842520765  1.0000
  H   H7        1.0  0.1588252122339182  0.6232167344167627  0.49402145478291093  1.0000
  H   H8        1.0  0.2863041196094593  0.6242227193606236  0.4949632519210312  1.0000
  C   C15       1.0  0.8349050486155993  0.04042250433153538  0.5678154620571518  1.0000
  C   C16       1.0  0.8353947095020058  0.0497547699397054  0.4309989517359494  1.0000
  C   C17       1.0  0.836666253828869  0.9376200293818572  0.36216309597381247  1.0000
  C   C18       1.0  0.8355256240048026  0.8145643659433474  0.43129533713688417  1.0000
  C   C19       1.0  0.8350272741714931  0.8031337622793252  0.5680576236511594  1.0000
  C   C20       1.0  0.8349643684108036  0.9166709814394389  0.635545744929231  1.0000
  N   N3        1.0  0.8360991677161526  0.9507453656383409  0.22209643532194168  1.0000
  C   C21       1.0  0.8686884750379361  0.859646405932495  0.14237001840625307  1.0000
  O   O1        1.0  0.9166288107488132  0.7868101203697008  0.18934822840928134  1.0000
  C   C22       1.0  0.8485040038164332  0.8535017327338363  0.004003277208960654  1.0000
  C   C23       1.0  0.784242171940418  0.9033764376255319  0.9576573492106686  1.0000
  C   C24       1.0  0.7656345238272007  0.8964120792112901  0.8271342451495625  1.0000
  C   C25       1.0  0.8106414721075452  0.8393571832360058  0.7416773110615167  1.0000
  C   C26       1.0  0.8742916486029286  0.7886954740467595  0.7866470150148088  1.0000
  C   C27       1.0  0.8931646410457177  0.7953035391369432  0.9170656440818661  1.0000
  H   H9        1.0  0.8333180122979483  0.2300827101386571  0.8258952579651235  1.0000
  H   H10       1.0  0.8353215427122404  0.1443842848481829  0.3771757788684247  1.0000
  H   H11       1.0  0.8338062602598232  0.7277935965964433  0.3784898285889162  1.0000
  H   H12       1.0  0.8345961886313275  0.9086114697778266  0.7410158351256022  1.0000
  H   H13       1.0  0.8339114444858288  0.47129990135449334  0.6205192822860539  1.0000
  H   H14       1.0  0.816274008844125  0.03689556378961112  0.17615586603475708  1.0000
  H   H15       1.0  0.747813225569326  0.9460490338898982  0.02213991030343343  1.0000
  H   H16       1.0  0.7161064983381967  0.9348584734155904  0.7923484029161214  1.0000
  H   H17       1.0  0.7960991909366347  0.8340378190530325  0.6407195069430491  1.0000
  H   H18       1.0  0.9090763591138534  0.7442277666355205  0.7204007295279995  1.0000
  H   H19       1.0  0.9428669923288241  0.7556718588929799  0.9496327713304904  1.0000
  C   C28       1.0  0.8350140334409405  0.42191867450437504  0.18656061676737012  1.0000
  C   C29       1.0  0.9059681032383736  0.4542924692467538  0.1827568993617441  1.0000
  C   C30       1.0  0.9419156468539074  0.4687171998709374  0.06415680885024444  1.0000
  C   C31       1.0  0.9058464365833051  0.4539824033212141  0.9476135043562808  1.0000
  C   C32       1.0  0.8349183211367284  0.42163761218730866  0.9493124838639755  1.0000
  C   C33       1.0  0.799961838712877  0.4053438349949634  0.06935434413435915  1.0000
  N   N4        1.0  0.014296026372129456  0.5038019394739874  0.06368436091398721  1.0000
  C   C34       1.0  0.06347958288464794  0.46395283699193657  0.969458696019069  1.0000
  O   O2        1.0  0.05078724672667234  0.3653969575134506  0.9078758864802854  1.0000
  C   C35       1.0  0.13022081597338242  0.5342798753509252  0.9471305795048552  1.0000
  C   C36       1.0  0.13862627046544906  0.6623470997763448  0.9835250561283102  1.0000
  C   C37       1.0  0.20168908662451712  0.7279010811122817  0.9613552689638265  1.0000
  C   C38       1.0  0.256851996880191  0.6668754980057088  0.9023610482013673  1.0000
  C   C39       1.0  0.24901074944249713  0.5402546225855058  0.8649610628233289  1.0000
  C   C40       1.0  0.1860663634593227  0.4742436198883837  0.8868016253807154  1.0000
  H   H20       1.0  0.7010109388224941  0.3620569836157115  0.40090649464592576  1.0000
  H   H21       1.0  0.933816710609099  0.46751132531593154  0.2721814675751202  1.0000
  H   H22       1.0  0.9327687733948555  0.46994594545772195  0.8555053680183144  1.0000
  H   H23       1.0  0.7452664425316013  0.38037033669243514  0.07142246397838359  1.0000
  H   H24       1.0  0.8074861695054706  0.41091083054562483  0.6223855087750598  1.0000
  H   H25       1.0  0.03327182995592315  0.5510046482956359  0.14262193713425586  1.0000
  H   H26       1.0  0.09640364771209042  0.7128811402307638  0.02731496170261094  1.0000
  H   H27       1.0  0.20768379878575782  0.8263783110706129  0.9895023922490354  1.0000
  H   H28       1.0  0.30559394147336705  0.7178524257321139  0.885259711360046  1.0000
  H   H29       1.0  0.2917476573919813  0.49313781217258223  0.8189752615361248  1.0000
  H   H30       1.0  0.18126264529558833  0.3759890056134594  0.8572795351937121  1.0000
  Zn  Zn1       1.0  0.7588092801428197  0.4217796817419992  0.5679384505147305  1.0000
  Zn  Zn2       1.0  0.9111163989311882  0.42177599536949395  0.5679340610139665  1.0000
  C   C41       1.0  0.8349340153020386  0.41651718461064413  0.8051344120876571  1.0000
  C   C42       1.0  0.834993327207581  0.4270401309976448  0.33073822738220704  1.0000
  C   C43       1.0  0.8350012519901148  0.6589670342911644  0.5628366016928297  1.0000
  C   C44       1.0  0.8349260382889825  0.18458872102415458  0.5730361065230032  1.0000
  O   O3        1.0  0.8927861349234711  0.4287518740042653  0.37912388299160926  1.0000
  O   O4        1.0  0.8927387864895932  0.41480166416910236  0.756745050784736  1.0000
  O   O5        1.0  0.8927923016276669  0.6105829835042418  0.5610878550449323  1.0000
  O   O6        1.0  0.8927325678270056  0.23297056399628402  0.5747809813593998  1.0000
  O   O7        1.0  0.7771930592720587  0.6105851131178832  0.5610915301639645  1.0000
  O   O8        1.0  0.7771395443895637  0.4148053540783876  0.7567486571524669  1.0000
  O   O9        1.0  0.7771868930583895  0.42875551923389876  0.3791259279155299  1.0000
  O   O10       1.0  0.7771333259453722  0.2329741999014332  0.5747831236500016  1.0000
