data_image0
_chemical_formula_structural       NC11NC3H8C7OC3FC3H9C7OC4NC3H9Zn2C4O8
_chemical_formula_sum              "N3 C45 H26 O10 F1 Zn2"
_cell_length_a       17.807433833752565
_cell_length_b       10.29937835083307
_cell_length_c       10.299375074045738
_cell_angle_alpha    85.53063417163439
_cell_angle_beta     88.51814048155188
_cell_angle_gamma    90.70491928007121

_space_group_name_H-M_alt    "P 1"
_space_group_IT_number       1

loop_
  _space_group_symop_operation_xyz
  'x, y, z'

loop_
  _atom_site_type_symbol
  _atom_site_label
  _atom_site_symmetry_multiplicity
  _atom_site_fract_x
  _atom_site_fract_y
  _atom_site_fract_z
  _atom_site_occupancy
  N   N1        1.0  0.7078080596639188  0.43909351954545484  0.5343766897578814  1.0000
  C   C1        1.0  0.6569769991169968  0.40434013340250186  0.6009470957032539  1.0000
  C   C2        1.0  0.5937380353242803  0.36110978684490447  0.6837521856176567  1.0000
  C   C3        1.0  0.6054438944781814  0.2975104412290095  0.8064853873756026  1.0000
  C   C4        1.0  0.5441128228564914  0.255960806252429  0.8870061990456382  1.0000
  C   C5        1.0  0.47092143729722563  0.2776969926111448  0.8454346790318539  1.0000
  C   C6        1.0  0.4582388471506843  0.3414510701736373  0.7222412372672848  1.0000
  C   C7        1.0  0.3804797014686871  0.3645184842099696  0.6778887481180287  1.0000
  C   C8        1.0  0.3617011283173416  0.3476943785206683  0.5483053017143085  1.0000
  C   C9        1.0  0.2884797950807447  0.36939185179447254  0.5066897140449025  1.0000
  C   C10       1.0  0.23309408130377843  0.4082322817948967  0.5938372157669642  1.0000
  C   C11       1.0  0.1577362529830655  0.4305887627955882  0.5508601768784391  1.0000
  N   N2        1.0  0.09715393190500482  0.44856171264139544  0.5163097654774724  1.0000
  C   C12       1.0  0.2511811696389203  0.4252671741156415  0.7228894737849598  1.0000
  C   C13       1.0  0.324349717112218  0.40353467296840595  0.7647605070090855  1.0000
  C   C14       1.0  0.5204272286300325  0.38299613382574127  0.6417368428146788  1.0000
  H   H1        1.0  0.6619038719224628  0.2800826135586292  0.8398549635676442  1.0000
  H   H2        1.0  0.5532944125198315  0.20647062341412759  0.981753800602716  1.0000
  H   H3        1.0  0.4242708208582854  0.2431155192681167  0.9088816407382225  1.0000
  H   H4        1.0  0.4033774162883735  0.3160770901863392  0.4795905361475359  1.0000
  H   H5        1.0  0.2750419991842764  0.35554825051872485  0.40665293944811  1.0000
  H   H6        1.0  0.20878787775397714  0.4556615771486525  0.791089630873419  1.0000
  H   H7        1.0  0.3372594138545295  0.41892381896643505  0.8646142890815849  1.0000
  H   H8        1.0  0.5119443842538113  0.43384863956190745  0.5472233644126323  1.0000
  C   C15       1.0  0.9024053969030033  0.062440782086548685  0.5254107303900946  1.0000
  C   C16       1.0  0.8240225436127556  0.06054850686952906  0.5130224272042989  1.0000
  C   C17       1.0  0.7843929128949272  0.9423033899051634  0.5082559603423513  1.0000
  C   C18       1.0  0.8242062420139682  0.825308968507266  0.5130207785437662  1.0000
  C   C19       1.0  0.9025637560194912  0.825204651416278  0.5252865828449926  1.0000
  C   C20       1.0  0.9411867479443126  0.944278908008317  0.5317536108753131  1.0000
  C   C21       1.0  0.7017189543670427  0.9402704446788965  0.49379719207752637  1.0000
  O   O1        1.0  0.6727053863164112  0.8549002825538574  0.428479403690065  1.0000
  C   C22       1.0  0.6519591582063499  0.03498573430816365  0.5534478120846047  1.0000
  C   C23       1.0  0.5850414407591646  0.07338125214767821  0.4927691926699036  1.0000
  C   C24       1.0  0.5373148021721329  0.16145656672483044  0.5490472950633434  1.0000
  F   F1        1.0  0.47321772463642714  0.19861234057066457  0.4892991981727133  1.0000
  C   C25       1.0  0.5555921432197751  0.21115187130581958  0.666809782441091  1.0000
  C   C26       1.0  0.6214312403799817  0.1724773049698134  0.7287530732169931  1.0000
  C   C27       1.0  0.6693131937335693  0.08447721856464163  0.6728724947624554  1.0000
  H   H9        1.0  0.05045436032694384  0.2734903965917508  0.5467866488106397  1.0000
  H   H10       1.0  0.7937950720564299  0.15132827689334172  0.5056115380982009  1.0000
  H   H11       1.0  0.7937929986883023  0.7341031296727862  0.508379464108085  1.0000
  H   H12       1.0  0.0016141029328877732  0.9449337085362206  0.5413033298758769  1.0000
  H   H13       1.0  0.9327359139969889  0.4977948943744778  0.5288991436437049  1.0000
  H   H14       1.0  0.570079395010291  0.03605124224088185  0.4013008030833225  1.0000
  H   H15       1.0  0.518625881138972  0.2792247150366436  0.7104060783252308  1.0000
  H   H16       1.0  0.6352318241864299  0.2102661506575889  0.8204889388473682  1.0000
  H   H17       1.0  0.7193771091174592  0.0541121901395647  0.7237040074305952  1.0000
  C   C28       1.0  0.9025101508413717  0.4439656864909163  0.14396068424131503  1.0000
  C   C29       1.0  0.9603574931862516  0.5384870777123667  0.13281860780304333  1.0000
  C   C30       1.0  0.9889506685573463  0.587227133152352  0.009968328986031283  1.0000
  C   C31       1.0  0.9602358075842631  0.5382463733913276  0.8975989746272122  1.0000
  C   C32       1.0  0.9024589919763163  0.44367974669120946  0.9067366578513587  1.0000
  C   C33       1.0  0.8737958321814173  0.3973346430683218  0.030386091223224998  1.0000
  C   C34       1.0  0.050572705933400686  0.6860484141245724  0.998116404687146  1.0000
  O   O2        1.0  0.09858106998836669  0.6825306853257498  0.9062544347540582  1.0000
  C   C35       1.0  0.05772109591821084  0.7888718445399845  0.0903954751267364  1.0000
  C   C36       1.0  0.12917220667718365  0.8371722844096448  0.11882932751850794  1.0000
  C   C37       1.0  0.136472535154035  0.9353655406122874  0.2046922911229443  1.0000
  C   C38       1.0  0.2098472477964093  0.9835034224097556  0.2340680228799421  1.0000
  N   N3        1.0  0.2688322492775941  0.02219523885545982  0.2576790413129899  1.0000
  C   C39       1.0  0.07232897518935566  0.9866588684342397  0.26185410728913694  1.0000
  C   C40       1.0  0.0011285541339118854  0.9403762554281654  0.23290736071566442  1.0000
  C   C41       1.0  0.9936788684764664  0.8424493624444429  0.14732684522712058  1.0000
  H   H18       1.0  0.7941351935483707  0.2641482584084316  0.3723855521596724  1.0000
  H   H19       1.0  0.9838190904464988  0.5732602977625525  0.2199079222957374  1.0000
  H   H20       1.0  0.9826052767465934  0.5750276635528915  0.8028102453323034  1.0000
  H   H21       1.0  0.8292000075461958  0.32446489367931863  0.03817198774290009  1.0000
  H   H22       1.0  0.8806968052639378  0.40656232110092816  0.5828319867089222  1.0000
  H   H23       1.0  0.17910815022170845  0.797664890571889  0.07513770279073273  1.0000
  H   H24       1.0  0.07735633644174733  0.0626621484201566  0.3282883934739531  1.0000
  H   H25       1.0  0.9515671021673239  0.9808714932221467  0.27643263920608896  1.0000
  H   H26       1.0  0.937870753393131  0.8096974149026903  0.12461802405538669  1.0000
  Zn  Zn1       1.0  0.8201648666344921  0.44182235793981905  0.5291704511359876  1.0000
  Zn  Zn2       1.0  0.984797107259096  0.44582225018505195  0.5215265923704504  1.0000
  C   C42       1.0  0.9024659305389389  0.4385598109698534  0.7625565568499757  1.0000
  C   C43       1.0  0.9024978414652964  0.4490864794828435  0.2881405303918534  1.0000
  C   C44       1.0  0.9025303143776392  0.6810278686897726  0.52013479326193  1.0000
  C   C45       1.0  0.9024334011204947  0.20661685999586465  0.530562366084284  1.0000
  O   O3        1.0  0.9649707864787027  0.4523173366426001  0.33362780021616567  1.0000
  O   O4        1.0  0.9649450466504965  0.43836379984444496  0.711267401384235  1.0000
  O   O5        1.0  0.964996195103075  0.6341598019115717  0.5155101509976843  1.0000
  O   O6        1.0  0.9649195818567495  0.2565213425377493  0.5293849558300023  1.0000
  O   O7        1.0  0.8400423358559351  0.6311232642235711  0.5213120902780779  1.0000
  O   O8        1.0  0.8399911877285546  0.4353288225599534  0.7170692711618862  1.0000
  O   O9        1.0  0.8400169277020076  0.4492823146866214  0.33942810852016514  1.0000
  O   O10       1.0  0.8399657230685259  0.253486311255944  0.5351853615083586  1.0000
