data_image0
_chemical_formula_structural       NC12NC2H8C7OC3OC4H12C6NCOC6H11Zn2C4O8
_chemical_formula_sum              "N3 C45 H31 O11 Zn2"
_cell_length_a       17.80743265337812
_cell_length_b       10.299371110280156
_cell_length_c       10.299662537453274
_cell_angle_alpha    85.55769285269643
_cell_angle_beta     91.52043180893111
_cell_angle_gamma    89.44795274300792

_space_group_name_H-M_alt    "P 1"
_space_group_IT_number       1

loop_
  _space_group_symop_operation_xyz
  'x, y, z'

loop_
  _atom_site_type_symbol
  _atom_site_label
  _atom_site_symmetry_multiplicity
  _atom_site_fract_x
  _atom_site_fract_y
  _atom_site_fract_z
  _atom_site_occupancy
  N   N1        1.0  0.7077881139655715  0.4071623401546334  0.6018229298854503  1.0000
  C   C1        1.0  0.6569810394060035  0.43674448068958815  0.5331346619157467  1.0000
  C   C2        1.0  0.5937720224751771  0.473542514979266  0.44769510378905064  1.0000
  C   C3        1.0  0.6055221200883439  0.5276062165353714  0.3210944899600219  1.0000
  C   C4        1.0  0.5442199501677426  0.5628998447361726  0.23805038551568614  1.0000
  C   C5        1.0  0.4710134992025701  0.5443934599821028  0.28094708625150155  1.0000
  C   C6        1.0  0.45828655246852446  0.49021079680589796  0.40801579986623837  1.0000
  C   C7        1.0  0.5204460410337763  0.4549204280974706  0.491043393805473  1.0000
  C   C8        1.0  0.38051138028403814  0.4705893140254376  0.4537723984109472  1.0000
  C   C9        1.0  0.36171300423649067  0.49773298442578406  0.5808257792126019  1.0000
  C   C10       1.0  0.2884766076020294  0.4792681594978152  0.6237630571622732  1.0000
  C   C11       1.0  0.2330954791390784  0.4334051091867426  0.540484831766429  1.0000
  C   C12       1.0  0.15772222941761282  0.4143869846874677  0.584822840620882  1.0000
  N   N2        1.0  0.097127474246896  0.39909769167225995  0.6204675495708842  1.0000
  C   C13       1.0  0.2512022719787355  0.40609234284137186  0.4139743600891914  1.0000
  C   C14       1.0  0.3243858474805714  0.42457203938615895  0.3707812010817284  1.0000
  H   H1        1.0  0.6619940272300393  0.5424416285713858  0.286662752090838  1.0000
  H   H2        1.0  0.5534357188339688  0.6050299722279608  0.14028624548401258  1.0000
  H   H3        1.0  0.4243861974828508  0.5740511643399433  0.21536678073906357  1.0000
  H   H4        1.0  0.5119284949406414  0.4114050278722725  0.5886826085183772  1.0000
  H   H5        1.0  0.4033859465861195  0.534890369492725  0.6464115642536539  1.0000
  H   H6        1.0  0.2750237739094054  0.5010808569564773  0.721779200256145  1.0000
  H   H7        1.0  0.2088125600691975  0.3702021064723242  0.34880196744290926  1.0000
  H   H8        1.0  0.3373100538030798  0.4012236860339877  0.2730678603145156  1.0000
  C   C15       1.0  0.9024107566486849  0.02175964543330844  0.611028163270039  1.0000
  C   C16       1.0  0.8937734190364394  0.031278776089202154  0.47462889152605703  1.0000
  C   C17       1.0  0.8885683627096161  0.9189105560362646  0.4059604243441237  1.0000
  C   C18       1.0  0.8938106662237866  0.7960100029588503  0.4749417624266745  1.0000
  C   C19       1.0  0.9025120271677672  0.7844902752109639  0.6112738661031492  1.0000
  C   C20       1.0  0.9065650269560979  0.8979676366391294  0.6785564555928993  1.0000
  C   C21       1.0  0.8802314221232892  0.9288178944207055  0.26181359152518136  1.0000
  O   O1        1.0  0.9110357608557503  0.8431659646288904  0.19926554354700543  1.0000
  C   C22       1.0  0.836940152230158  0.035811385372945814  0.18862935004145642  1.0000
  C   C23       1.0  0.857956293544116  0.08058556696672947  0.06249270258518691  1.0000
  C   C24       1.0  0.8173309660500201  0.1804673399540515  0.9911661726995233  1.0000
  O   O2        1.0  0.8413334756027213  0.2218266136924949  0.8662172503676944  1.0000
  C   C25       1.0  0.8055344586182992  0.32208492926445786  0.7830676040177571  1.0000
  C   C26       1.0  0.7543032479529351  0.23560891260504868  0.04663624092598018  1.0000
  C   C27       1.0  0.7325160286123723  0.19056145493095622  0.17121889820812064  1.0000
  C   C28       1.0  0.773274777357741  0.09095851174184544  0.24179963673150584  1.0000
  H   H9        1.0  0.9198567646003999  0.21111184235615976  0.868257598342097  1.0000
  H   H10       1.0  0.89192046246943  0.12627224326715214  0.4215102296297468  1.0000
  H   H11       1.0  0.8903637709618021  0.7092415836853742  0.42205403995718127  1.0000
  H   H12       1.0  0.9132242649108183  0.889825273148578  0.7837103229760174  1.0000
  H   H13       1.0  0.9064796033916709  0.452604721044487  0.6635509375491324  1.0000
  H   H14       1.0  0.9065359118161513  0.038700944933369286  0.01944604722098542  1.0000
  H   H15       1.0  0.8361931619351473  0.334577602556267  0.6906645200002552  1.0000
  H   H16       1.0  0.8066348391510028  0.41550051945946387  0.8301395455425542  1.0000
  H   H17       1.0  0.7466624612811397  0.295078749967959  0.7604840599134048  1.0000
  H   H18       1.0  0.7216783449333737  0.31280374333644656  0.99418523690853  1.0000
  H   H19       1.0  0.6836526461631971  0.2326138352910172  0.21303022769197377  1.0000
  H   H20       1.0  0.7545208782161155  0.05616118094975597  0.33728061611394766  1.0000
  C   C29       1.0  0.9025131214740563  0.40326441105377486  0.22977754500290248  1.0000
  C   C30       1.0  0.9792064046484054  0.4340505289920875  0.22964644940492263  1.0000
  C   C31       1.0  0.018061692663315032  0.44767083587041423  0.11290703091659271  1.0000
  C   C32       1.0  0.9790749071263355  0.43374317813078145  0.9944967578099311  1.0000
  C   C33       1.0  0.9024096769602419  0.4029854835396973  0.9925244588578805  1.0000
  C   C34       1.0  0.8646257073562379  0.3874738868424161  0.11075695358451298  1.0000
  N   N3        1.0  0.09629657113293422  0.48113604298603607  0.11618102372878569  1.0000
  C   C35       1.0  0.1494609249662462  0.4401846014674473  0.02450135777986784  1.0000
  O   O3        1.0  0.13574570624843219  0.34191004382120993  0.9622619298137134  1.0000
  C   C36       1.0  0.22159899701250185  0.5090193834399024  0.005627656494998856  1.0000
  C   C37       1.0  0.23067931065881653  0.6369021200678617  0.04245674353009954  1.0000
  C   C38       1.0  0.2988415574072103  0.7010460641959146  0.023550986177524713  1.0000
  C   C39       1.0  0.3584698801964754  0.6387836558240072  0.9674123476293404  1.0000
  C   C40       1.0  0.34999936212496463  0.5123346778282691  0.9296069511005864  1.0000
  C   C41       1.0  0.28196514561332053  0.4477310475478187  0.9481896157519052  1.0000
  H   H21       1.0  0.7576709583153581  0.34640122653643424  0.43718734401452575  1.0000
  H   H22       1.0  0.009307562560918248  0.4466462560977107  0.3205124750035746  1.0000
  H   H23       1.0  0.00817474369921034  0.4491044092660412  0.9037821228401484  1.0000
  H   H24       1.0  0.8055062027514402  0.36372425878731063  0.10999400960591932  1.0000
  H   H25       1.0  0.8727585672043323  0.39287257878955906  0.6641775738284172  1.0000
  H   H26       1.0  0.116805697851591  0.5279152619270591  0.1961006551216622  1.0000
  H   H27       1.0  0.1850386310276535  0.6883829580778036  0.08406092409413723  1.0000
  H   H28       1.0  0.305317285516004  0.7993919252850405  0.05200804413889015  1.0000
  H   H29       1.0  0.4111532182841371  0.688670759229379  0.9528338142016288  1.0000
  H   H30       1.0  0.3961957968032537  0.464259654214916  0.8858334827107899  1.0000
  H   H31       1.0  0.2767767596009538  0.3495811430375353  0.9184192385845233  1.0000
  Zn  Zn1       1.0  0.8201430450124167  0.40483158677815645  0.6072108502854816  1.0000
  Zn  Zn2       1.0  0.9847725378627331  0.4014178476774699  0.6150902189358678  1.0000
  C   C42       1.0  0.9024268480586665  0.3978645564627037  0.848347218429131  1.0000
  C   C43       1.0  0.9024905327656848  0.40838647929392646  0.37395406483047045  1.0000
  C   C44       1.0  0.90248971368722  0.640319914108866  0.606051989549969  1.0000
  C   C45       1.0  0.9024276107440478  0.16592956247906487  0.616249359757816  1.0000
  O   O4        1.0  0.9649589855994809  0.4088043302261235  0.4253311994675142  1.0000
  O   O5        1.0  0.9649083709517375  0.39485477695227367  0.8029499681154779  1.0000
  O   O6        1.0  0.9649582933518277  0.5906405614881574  0.6072948166419465  1.0000
  O   O7        1.0  0.9649090070369394  0.21301855618098076  0.6209862508795141  1.0000
  O   O8        1.0  0.8400065196582455  0.5932308794410039  0.6013148156461632  1.0000
  O   O9        1.0  0.8399565974712737  0.39744665524017675  0.7969698983758373  1.0000
  O   O10       1.0  0.8400072123747814  0.4113961638278216  0.41934956829639036  1.0000
  O   O11       1.0  0.8399572337947263  0.21561038045829606  0.6150047170742492  1.0000
