data_image0
_chemical_formula_structural       NC10NC3NH7C6NCOC6H11C7OC4NC3H9Zn2C4O8
_chemical_formula_sum              "N5 C44 H27 O10 Zn2"
_cell_length_a       19.210446455230148
_cell_length_b       10.29965916528486
_cell_length_c       10.299375074045738
_cell_angle_alpha    85.55751919023885
_cell_angle_beta     89.9839463016943
_cell_angle_gamma    89.96405462056514

_space_group_name_H-M_alt    "P 1"
_space_group_IT_number       1

loop_
  _space_group_symop_operation_xyz
  'x, y, z'

loop_
  _atom_site_type_symbol
  _atom_site_label
  _atom_site_symmetry_multiplicity
  _atom_site_fract_x
  _atom_site_fract_y
  _atom_site_fract_z
  _atom_site_occupancy
  N   N1        1.0  0.6557818574380182  0.4207013404623463  0.5677765099840484  1.0000
  C   C1        1.0  0.5955534689185268  0.42290867967951473  0.5680084736040023  1.0000
  C   C2        1.0  0.5207492287518839  0.4256453761886805  0.5682958483438381  1.0000
  C   C3        1.0  0.4851466229749016  0.5418654303272152  0.5834506887735165  1.0000
  C   C4        1.0  0.4124811570460915  0.5420169826706032  0.5833981445018455  1.0000
  C   C5        1.0  0.3755825246951955  0.42635428153755783  0.5683825938856657  1.0000
  C   C6        1.0  0.2982602998021823  0.42499791746127835  0.5682315004907013  1.0000
  C   C7        1.0  0.2605165121071977  0.5285897759714171  0.5049048717885425  1.0000
  C   C8        1.0  0.1877380559388401  0.5271876419558028  0.5047952811798733  1.0000
  C   C9        1.0  0.151701997889135  0.4224511697016826  0.567961414310723  1.0000
  C   C10       1.0  0.0767723857664795  0.4211491921025301  0.5678241046323058  1.0000
  N   N2        1.0  0.016534459421136  0.4201023578918315  0.5677137425120733  1.0000
  C   C11       1.0  0.1887221385633065  0.3189850088790853  0.6312630793786336  1.0000
  C   C12       1.0  0.2615024209988679  0.320112865307679  0.6314228178403998  1.0000
  C   C13       1.0  0.4137951171837566  0.3119542989673352  0.5535165943895908  1.0000
  N   N3        1.0  0.4845652406744887  0.3143991143361713  0.5536830563658155  1.0000
  H   H1        1.0  0.5132537808157056  0.6312908101344454  0.5955322559779499  1.0000
  H   H2        1.0  0.3852184850894598  0.6320236476082919  0.5968747054569692  1.0000
  H   H3        1.0  0.287251723366742  0.609860417498393  0.4539417741663223  1.0000
  H   H4        1.0  0.1595994623769422  0.6076300779861425  0.4551623302771457  1.0000
  H   H5        1.0  0.1613473327422987  0.23757925259934165  0.6807961899170587  1.0000
  H   H6        1.0  0.2889960958137855  0.2397890354319132  0.6824935982966538  1.0000
  H   H7        1.0  0.3875235330252408  0.221084764698658  0.5399934695794917  1.0000
  C   C14       1.0  0.836100261640363  0.03904131849208525  0.5676296556460532  1.0000
  C   C15       1.0  0.8365819754977495  0.04837344022397505  0.43080919501855774  1.0000
  C   C16       1.0  0.8378511009247415  0.9362369226986642  0.36197117328464357  1.0000
  C   C17       1.0  0.8367131105442406  0.8131828171031367  0.43110556600168093  1.0000
  C   C18       1.0  0.8362226909047068  0.8017523720282173  0.5678718028030729  1.0000
  C   C19       1.0  0.8361639804214971  0.9152893651469399  0.6353618415695699  1.0000
  N   N4        1.0  0.8372742329955849  0.9493638880623548  0.22190065447718021  1.0000
  C   C20       1.0  0.8699086785881613  0.858211132484614  0.14216631187397022  1.0000
  O   O1        1.0  0.9179258614944554  0.7852949060433934  0.1891375031559035  1.0000
  C   C21       1.0  0.8496843100827205  0.8521006980255783  0.003799175701994839  1.0000
  C   C22       1.0  0.7853205254636872  0.9020824785615222  0.95746312566911  1.0000
  C   C23       1.0  0.7666759082529963  0.8951496986650723  0.8269395737092817  1.0000
  C   C24       1.0  0.8117467616220264  0.8380203879959433  0.7414723902801423  1.0000
  C   C25       1.0  0.8754978609849895  0.7872526269083843  0.7864322838718185  1.0000
  C   C26       1.0  0.8944082246842304  0.7938286728027814  0.9168513116928261  1.0000
  H   H8        1.0  0.8345271939302625  0.2287028987006685  0.8257170185845342  1.0000
  H   H9        1.0  0.8365052728703101  0.1430033404758113  0.376984514385609  1.0000
  H   H10       1.0  0.8349877394661688  0.7264151652568425  0.3782988650209871  1.0000
  H   H11       1.0  0.8358019412226702  0.907229948945325  0.7408349753884234  1.0000
  H   H12       1.0  0.8351084786345845  0.4699201093828896  0.620335137731095  1.0000
  H   H13       1.0  0.8174156086497922  0.03554727471136632  0.17596223869961447  1.0000
  H   H14       1.0  0.7488395557731092  0.9448153295740491  0.02195385024738994  1.0000
  H   H15       1.0  0.7170693649150883  0.9336786138780856  0.7921613710292323  1.0000
  H   H16       1.0  0.7971756550036706  0.8327256979721095  0.6405142657486991  1.0000
  H   H17       1.0  0.9103319494471319  0.7427274072719835  0.7201780713166479  1.0000
  H   H18       1.0  0.944189221283186  0.7541141925672573  0.94941070636134  1.0000
  C   C27       1.0  0.8361851668539566  0.4205391752843086  0.1863640209461097  1.0000
  C   C28       1.0  0.889781276494005  0.5135588938970435  0.17794075788240926  1.0000
  C   C29       1.0  0.9162730594896681  0.5615565636244166  0.05643530296034749  1.0000
  C   C30       1.0  0.8896685349673011  0.5133213511120733  0.9427153858002089  1.0000
  C   C31       1.0  0.8361377741287458  0.42025457643812003  0.9491374948630571  1.0000
  C   C32       1.0  0.809581069953818  0.3746535151898567  0.07143999611625307  1.0000
  C   C33       1.0  0.9733665192792104  0.6587783029629253  0.0474787227984621  1.0000
  O   O2        1.0  0.017849333906876153  0.6540195426343407  0.9578345597985605  1.0000
  C   C34       1.0  0.9799866662815885  0.7614103522297742  0.1401366635536916  1.0000
  C   C35       1.0  0.04618897684263357  0.8078603427901097  0.17189648734842744  1.0000
  C   C36       1.0  0.05295005172629197  0.9058585848552232  0.258143166259845  1.0000
  C   C37       1.0  0.12093470294265707  0.9520962929994499  0.29093372246442106  1.0000
  N   N5        1.0  0.175586702540536  0.989260584287998  0.31728987234505057  1.0000
  C   C38       1.0  0.993515463348641  0.9588070717710364  0.3123637193882409  1.0000
  C   C39       1.0  0.9275453679292608  0.9143682977673211  0.28010354069519194  1.0000
  C   C40       1.0  0.920645895943428  0.8166402635575503  0.19413253037203604  1.0000
  H   H19       1.0  0.7357748313539706  0.2435352523877452  0.4096940005965273  1.0000
  H   H20       1.0  0.9115187816959708  0.5477232961610443  0.26613108594091384  1.0000
  H   H21       1.0  0.9103940523248123  0.5495219323484704  0.8489781252907806  1.0000
  H   H22       1.0  0.7682626168014857  0.3029414392488532  0.0771298974058634  1.0000
  H   H23       1.0  0.8159749520279236  0.38370217993279643  0.6242092718515719  1.0000
  H   H24       1.0  0.09245895910885849  0.7670643758109361  0.13049484409207057  1.0000
  H   H25       1.0  0.9981712012706182  0.034675520771259905  0.37906619596559477  1.0000
  H   H26       1.0  0.881622343673316  0.9561423632063653  0.3213566156788805  1.0000
  H   H27       1.0  0.8689372877705158  0.7853333238646087  0.16882824324772483  1.0000
  Zn  Zn1       1.0  0.7598872638238392  0.420525020255494  0.567765894964958  1.0000
  Zn  Zn2       1.0  0.912429034735973  0.4202680918148003  0.5677349904449265  1.0000
  C   C41       1.0  0.8361443662599727  0.4151347879441356  0.8049553048865363  1.0000
  C   C42       1.0  0.836173598306365  0.4256599598565223  0.33054570817854434  1.0000
  C   C43       1.0  0.8361962965791357  0.6575857128859468  0.5626506378811982  1.0000
  C   C44       1.0  0.836121615680583  0.18320747470824816  0.5728504439408861  1.0000
  O   O3        1.0  0.8940585219696288  0.4272753733167214  0.3789226696265324  1.0000
  O   O4        1.0  0.8940351170086451  0.4133233921808983  0.7565545134483707  1.0000
  O   O5        1.0  0.894076270945443  0.6091055810923236  0.5608917810826888  1.0000
  O   O6        1.0  0.8940173159881962  0.2314931938193232  0.5745853046264955  1.0000
  O   O7        1.0  0.7782989305165966  0.6092999183400643  0.5609155807871045  1.0000
  O   O8        1.0  0.7782577768313986  0.41351928972419527  0.7565782443994982  1.0000
  O   O9        1.0  0.7782811819283855  0.427471226187625  0.3789448390896981  1.0000
  O   O10       1.0  0.7782399759365684  0.23168903736529356  0.5746075714590952  1.0000
