data_image0
_chemical_formula_structural       NC8NC6H8C6SCOC6H10C7OC3FC3H9Zn2C4O8
_chemical_formula_sum              "N2 C44 H27 S1 O10 F1 Zn2"
_cell_length_a       17.457602349358154
_cell_length_b       10.302038109246572
_cell_length_c       10.29938172300155
_cell_angle_alpha    85.58271297890445
_cell_angle_beta     92.85910674266745
_cell_angle_gamma    91.70619204985762

_space_group_name_H-M_alt    "P 1"
_space_group_IT_number       1

loop_
  _space_group_symop_operation_xyz
  'x, y, z'

loop_
  _atom_site_type_symbol
  _atom_site_label
  _atom_site_symmetry_multiplicity
  _atom_site_fract_x
  _atom_site_fract_y
  _atom_site_fract_z
  _atom_site_occupancy
  N   N1        1.0  0.7229342503429449  0.4521400854189659  0.6267248558871041  1.0000
  C   C1        1.0  0.6618493657779315  0.4062229433908995  0.6161030755299055  1.0000
  C   C2        1.0  0.5858571858192405  0.3491077341847886  0.6028991233471912  1.0000
  C   C3        1.0  0.5273235290779953  0.38927929886679813  0.677801045860966  1.0000
  C   C4        1.0  0.452769731379099  0.33428201185240836  0.6652118090671906  1.0000
  C   C5        1.0  0.3906448570959125  0.3766973286558164  0.7445357684369316  1.0000
  C   C6        1.0  0.3161111512446805  0.39514713942695656  0.6887756568333412  1.0000
  C   C7        1.0  0.2575774383488423  0.4351348494335898  0.7637855063619781  1.0000
  C   C8        1.0  0.1816060676249279  0.45418980468769976  0.7058100514608159  1.0000
  N   N2        1.0  0.12053800082931851  0.46950361055212575  0.659197935900717  1.0000
  C   C9        1.0  0.2730852288365438  0.45691596300697945  0.8950640099025231  1.0000
  C   C10       1.0  0.3468342391652843  0.43885514661362457  0.9512117661435515  1.0000
  C   C11       1.0  0.40535630395799316  0.3990475656191921  0.8766596549963748  1.0000
  C   C12       1.0  0.43803834977523765  0.23843553360654246  0.5762876612039305  1.0000
  C   C13       1.0  0.4965602737447664  0.19854268569198652  0.5017857733753235  1.0000
  C   C14       1.0  0.5703292340962526  0.2536524624736707  0.5149249663836373  1.0000
  H   H1        1.0  0.5396706141780863  0.46447300098339506  0.7444408832539753  1.0000
  H   H2        1.0  0.3037805691726176  0.3801543049104319  0.5867507833114021  1.0000
  H   H3        1.0  0.2282201802710511  0.48780651626598637  0.9539030893748854  1.0000
  H   H4        1.0  0.3586514701286032  0.455405180314711  0.05286359630616433  1.0000
  H   H5        1.0  0.4618312574448449  0.38407105997981006  0.9227633355121552  1.0000
  H   H6        1.0  0.3815468616790689  0.19310791199687238  0.5656298444822458  1.0000
  H   H7        1.0  0.4847274139760221  0.12446487666466677  0.433947785341507  1.0000
  H   H8        1.0  0.6151940743720699  0.2218925461561001  0.4565968857586209  1.0000
  C   C15       1.0  0.9216671354393472  0.0795403715009253  0.6429156029358427  1.0000
  C   C16       1.0  0.8560942543373758  0.08142561450869579  0.5580411911909211  1.0000
  C   C17       1.0  0.8238288700259648  0.9654207597203196  0.5153567727915336  1.0000
  C   C18       1.0  0.8563410274397164  0.8463037787546348  0.5580073399072862  1.0000
  C   C19       1.0  0.9218124699062924  0.8420936397142339  0.6430190463516734  1.0000
  C   C20       1.0  0.9541773809560468  0.9593519645584294  0.6849507088657274  1.0000
  S   S1        1.0  0.7405958361355541  0.969294134743297  0.40595068936288503  1.0000
  C   C21       1.0  0.7970251060348177  0.9802147181814971  0.26413855615063886  1.0000
  O   O1        1.0  0.8155316426170693  0.8757430823251703  0.21930033880004163  1.0000
  C   C22       1.0  0.8223384439241892  0.10746925812584807  0.2007089070002348  1.0000
  C   C23       1.0  0.8765979385797122  0.11215158030604089  0.10363465109132086  1.0000
  C   C24       1.0  0.901265446656975  0.2315488977296365  0.043926684867439336  1.0000
  C   C25       1.0  0.8720886963213211  0.34752169103454467  0.08004472823631348  1.0000
  C   C26       1.0  0.8180601579058109  0.34432168513750416  0.1757848133634421  1.0000
  C   C27       1.0  0.7931368754243538  0.22521691912075248  0.2357920600576351  1.0000
  H   H9        1.0  0.04517545579592941  0.2832870992158856  0.8030554224726052  1.0000
  H   H10       1.0  0.8299978907324759  0.1727998965214601  0.5246342971908882  1.0000
  H   H11       1.0  0.83049190925412  0.7574151972179669  0.5241321117082312  1.0000
  H   H12       1.0  0.004729783436350443  0.9569782743370557  0.7503799015122457  1.0000
  H   H13       1.0  0.9468385492563184  0.5131841822831628  0.6750293179559694  1.0000
  H   H14       1.0  0.9003357660679177  0.02361557966856198  0.07427603674596472  1.0000
  H   H15       1.0  0.9431287023724771  0.23411036267795415  0.9696487460499315  1.0000
  H   H16       1.0  0.8912733956506108  0.4398514833736238  0.03373766957867175  1.0000
  H   H17       1.0  0.7953281101520319  0.4342840388851399  0.20346493154436263  1.0000
  H   H18       1.0  0.7508243943275129  0.22602325065304463  0.3089009806780312  1.0000
  C   C28       1.0  0.9218043566716724  0.4607187030638271  0.2616049039839785  1.0000
  C   C29       1.0  0.9460581717697744  0.3313546352349248  0.2724313453689853  1.0000
  C   C30       1.0  0.9591246980813364  0.26659950117238274  0.16075126604220813  1.0000
  C   C31       1.0  0.9459848492218998  0.331644497161693  0.03715934213691674  1.0000
  C   C32       1.0  0.9216751956830296  0.4609152598337465  0.024329734984153806  1.0000
  C   C33       1.0  0.909919018265097  0.5248167040888669  0.1371694130594756  1.0000
  C   C34       1.0  0.9839584645732762  0.12954862693859526  0.1720081996613554  1.0000
  O   O2        1.0  0.9603146216823897  0.05528951917104541  0.08588711197497845  1.0000
  C   C35       1.0  0.03562022328533887  0.07674479058023098  0.2808661222581208  1.0000
  C   C36       1.0  0.02941464106996805  0.9445445268423038  0.3256166101028799  1.0000
  C   C37       1.0  0.07846319952677949  0.8934921014245556  0.42717258596396945  1.0000
  F   F1        1.0  0.07164519947182368  0.7661575963622933  0.470269294671978  1.0000
  C   C38       1.0  0.13451055318682825  0.9735447109304576  0.48422732468992136  1.0000
  C   C39       1.0  0.14182074518326826  0.10458805393485227  0.43950184939773895  1.0000
  C   C40       1.0  0.09292440113936418  0.1560587983824666  0.3380293304711415  1.0000
  H   H19       1.0  0.874907326100995  0.7041820929529694  0.44844959186556155  1.0000
  H   H20       1.0  0.9539968007936842  0.2803231485647184  0.36787913068052713  1.0000
  H   H21       1.0  0.9554843945393249  0.28152196113074535  0.9509033151805086  1.0000
  H   H22       1.0  0.8912207739864025  0.6245464438806962  0.1280189486789145  1.0000
  H   H23       1.0  0.9117181484633042  0.5102097313542349  0.6919203311354081  1.0000
  H   H24       1.0  0.9861835743496407  0.8811550701364248  0.28270551387481  1.0000
  H   H25       1.0  0.17250418023669578  0.934005341113811  0.5627420766944171  1.0000
  H   H26       1.0  0.18565348055003006  0.16625646649661152  0.48310079929822103  1.0000
  H   H27       1.0  0.10048660205510185  0.2573237878052075  0.30339834422527834  1.0000
  Zn  Zn1       1.0  0.8376741021188493  0.4571473437270255  0.6361033831902438  1.0000
  Zn  Zn2       1.0  0.005798130974835836  0.46448570960197966  0.6498300394998933  1.0000
  C   C41       1.0  0.9216969331205166  0.45570556628714565  0.8801575528419754  1.0000
  C   C42       1.0  0.9217771361729309  0.4659292054539379  0.40577614742926826  1.0000
  C   C43       1.0  0.9217819043831039  0.6979533235126707  0.6378240635258143  1.0000
  C   C44       1.0  0.9216921072323861  0.223679885796767  0.6481097010873769  1.0000
  O   O3        1.0  0.985570192410611  0.47045710481540715  0.4593705275143365  1.0000
  O   O4        1.0  0.9855061245359527  0.45674633723194114  0.8369810133102349  1.0000
  O   O5        1.0  0.9855738795923994  0.6523644276392364  0.6412949360974292  1.0000
  O   O6        1.0  0.9855023800030775  0.27483902116702197  0.6550565026714184  1.0000
  O   O7        1.0  0.8579697957181294  0.6467940296591705  0.6308769153276537  1.0000
  O   O8        1.0  0.8579020409671614  0.45117749918070893  0.8265629235074476  1.0000
  O   O9        1.0  0.8579661091485751  0.4648882211183514  0.44895087633554187  1.0000
  O   O10       1.0  0.85789829671965  0.26927012820824325  0.6446369488572834  1.0000
