data_image0
_chemical_formula_structural       NC11NC3H8C7OC6H10C7OC3NC3H11Zn2C4O8
_chemical_formula_sum              "N3 C44 H29 O10 Zn2"
_cell_length_a       17.807433833752565
_cell_length_b       10.299379429549807
_cell_length_c       10.298749378158432
_cell_angle_alpha    85.5342726072926
_cell_angle_beta     88.5335258425568
_cell_angle_gamma    90.68187924927143

_space_group_name_H-M_alt    "P 1"
_space_group_IT_number       1

loop_
  _space_group_symop_operation_xyz
  'x, y, z'

loop_
  _atom_site_type_symbol
  _atom_site_label
  _atom_site_symmetry_multiplicity
  _atom_site_fract_x
  _atom_site_fract_y
  _atom_site_fract_z
  _atom_site_occupancy
  N   N1        1.0  0.7072470329345562  0.43866661347767266  0.5340081448794067  1.0000
  C   C1        1.0  0.6564344405809901  0.4039330045995637  0.6005883876243638  1.0000
  C   C2        1.0  0.5932184492236096  0.3607272584158263  0.6834057136159999  1.0000
  C   C3        1.0  0.6049582488184386  0.29716438134245937  0.8061569441832535  1.0000
  C   C4        1.0  0.5436494040566897  0.25563867427472253  0.8866895443064198  1.0000
  C   C5        1.0  0.4704464778866885  0.27736251066034745  0.8451118738892636  1.0000
  C   C6        1.0  0.45772983921782223  0.3410799818680972  0.7219003545966527  1.0000
  C   C7        1.0  0.3799584090505471  0.3641342182157392  0.677541331306005  1.0000
  C   C8        1.0  0.3611632424271038  0.3472705478369411  0.5479577856576558  1.0000
  C   C9        1.0  0.28793037049640163  0.36895565726609947  0.5063360549907021  1.0000
  C   C10       1.0  0.23254950898327653  0.4078230430110834  0.5934774164135672  1.0000
  C   C11       1.0  0.1571797761264003  0.4301667550427948  0.5504940450203966  1.0000
  N   N2        1.0  0.0965878846754148  0.44812943956644036  0.5159385427541903  1.0000
  C   C12       1.0  0.2506530586691688  0.424897341371395  0.7225297101857198  1.0000
  C   C13       1.0  0.323833193172481  0.4031772812006147  0.7644069019804356  1.0000
  C   C14       1.0  0.5198959974753518  0.38260112253923206  0.6413841732149621  1.0000
  H   H1        1.0  0.6614274853904397  0.2797464672812473  0.8395314528406723  1.0000
  H   H2        1.0  0.5528572850611365  0.20617663946825493  0.9814511523112239  1.0000
  H   H3        1.0  0.4238137973647734  0.24279986821937416  0.9085685397920076  1.0000
  H   H4        1.0  0.40283593176603  0.315631992688437  0.479248085354409  1.0000
  H   H5        1.0  0.2744799607006865  0.3550815017452502  0.4062993967160262  1.0000
  H   H6        1.0  0.208263564417908  0.4553128394945829  0.7907250623091218  1.0000
  H   H7        1.0  0.33675512079677977  0.41859694539436676  0.864260213715228  1.0000
  H   H8        1.0  0.5113865865451399  0.43342556855044934  0.5468563881971804  1.0000
  C   C15       1.0  0.9019292602244995  0.06200639561633814  0.5251268507659836  1.0000
  C   C16       1.0  0.9474795710088718  0.053216959596668056  0.6347672086648541  1.0000
  C   C17       1.0  0.9697497141180949  0.9315273893757527  0.6909505516071088  1.0000
  C   C18       1.0  0.9473881031762781  0.8179926835836868  0.6344951496986382  1.0000
  C   C19       1.0  0.9019128420583328  0.8247798451692925  0.5248306819107165  1.0000
  C   C20       1.0  0.8792840491326199  0.9472631091595101  0.4709873603009387  1.0000
  C   C21       1.0  0.018499823558832507  0.9221791409948656  0.8058946947041437  1.0000
  O   O1        1.0  0.06616149037896668  0.8325502363785751  0.8160398413691108  1.0000
  C   C22       1.0  0.01317663852067641  0.01440815308605048  0.90933459919906  1.0000
  C   C23       1.0  0.07744322080568922  0.04542982615477875  0.9779201910293518  1.0000
  C   C24       1.0  0.07279903106176633  0.13106956891466148  0.07663572310563016  1.0000
  C   C25       1.0  0.003983985541700097  0.1856886179350119  0.10858997218175548  1.0000
  C   C26       1.0  0.9396024301358773  0.15435512352919134  0.04225399114917938  1.0000
  C   C27       1.0  0.9439449251445704  0.06878770721820371  0.9434647871882387  1.0000
  H   H9        1.0  0.816920973936061  0.2860260565587136  0.3170241362897259  1.0000
  H   H10       1.0  0.9663808724558516  0.141261361797683  0.6757302583425817  1.0000
  H   H11       1.0  0.9649787214256191  0.7241157346779329  0.6771193545427778  1.0000
  H   H12       1.0  0.8441685458411011  0.9532350177446913  0.3864622856967941  1.0000
  H   H13       1.0  0.8849661085868189  0.4999924029947164  0.48204619687819883  1.0000
  H   H14       1.0  0.13133545663451773  0.0042960043463615705  0.9543700262552872  1.0000
  H   H15       1.0  0.12260335543773149  0.15504638908232127  0.12842455385517015  1.0000
  H   H16       1.0  0.0004915719201954438  0.25186874897897504  0.18509903031424546  1.0000
  H   H17       1.0  0.8861937878204065  0.19593930222468914  0.06778169389013011  1.0000
  H   H18       1.0  0.893103381066469  0.04410056235523219  0.8948840875108441  1.0000
  C   C28       1.0  0.9018863994086973  0.4434202795923705  0.14357931149096026  1.0000
  C   C29       1.0  0.9429198511557568  0.5612892432679901  0.13160973647144725  1.0000
  C   C30       1.0  0.9629150430464062  0.6216745546089701  0.008353098735300657  1.0000
  C   C31       1.0  0.9429228358230953  0.5613381801204553  0.8963655495087353  1.0000
  C   C32       1.0  0.9019556765016143  0.4433659277055928  0.9063782278423926  1.0000
  C   C33       1.0  0.8815248482489251  0.38533199700807175  0.030402880275894884  1.0000
  C   C34       1.0  0.0068552946523570135  0.7455177151323553  0.9955858672990305  1.0000
  O   O2        1.0  0.053796808865996804  0.7650024983670456  0.9020532164521868  1.0000
  C   C35       1.0  0.997544544669273  0.8472482527295657  0.0888679861549011  1.0000
  C   C36       1.0  0.9272613643539495  0.8681153810556277  0.14882537011074515  1.0000
  C   C37       1.0  0.9188558173103355  0.9654188718669461  0.2358777974709232  1.0000
  N   N3        1.0  0.8473300066398435  0.9855333792516696  0.2968610196869099  1.0000
  C   C38       1.0  0.9808454053196684  0.04318112293776233  0.26236879778608846  1.0000
  C   C39       1.0  0.050536538953988686  0.02425037145141351  0.20197879775582317  1.0000
  C   C40       1.0  0.05889878545574345  0.9272575171468989  0.11530506331850687  1.0000
  H   H19       1.0  0.8253490407138422  0.2197164220333292  0.37359051745818483  1.0000
  H   H20       1.0  0.960075774811273  0.6055546095910795  0.21834259728215244  1.0000
  H   H21       1.0  0.9587656219026446  0.6072478843171716  0.8012062383334229  1.0000
  H   H22       1.0  0.8498990381462118  0.2944739892114159  0.03887730747903917  1.0000
  H   H23       1.0  0.8248203179247625  0.22022655865462637  0.7180003481369517  1.0000
  H   H24       1.0  0.8787895706527089  0.809926697969602  0.12705418308241767  1.0000
  H   H25       1.0  0.8007464638868456  0.9281258096916629  0.27781690444305496  1.0000
  H   H26       1.0  0.8404451375787855  0.05788870755098108  0.3616400454798889  1.0000
  H   H27       1.0  0.9750711043958858  0.1186595847154579  0.32934041796309055  1.0000
  H   H28       1.0  0.09820571019189606  0.08487950828344903  0.22237963362706736  1.0000
  H   H29       1.0  0.11347622521161216  0.9139384477318362  0.06977731519463037  1.0000
  Zn  Zn1       1.0  0.8196023930752777  0.4413939052989737  0.528801134498426  1.0000
  Zn  Zn2       1.0  0.9842325109645651  0.44539152676443305  0.5211561441200663  1.0000
  C   C41       1.0  0.9019410332741468  0.43820219231354196  0.7621949874932576  1.0000
  C   C42       1.0  0.9018956684977625  0.44858492211222245  0.2877623344825775  1.0000
  C   C43       1.0  0.9019116042597743  0.6805996935491416  0.5197112646900715  1.0000
  C   C44       1.0  0.9019250413752697  0.20618585911173337  0.5302461297444909  1.0000
  O   O3        1.0  0.9643750511726369  0.45182963375374197  0.3332502423203121  1.0000
  O   O4        1.0  0.9644121007827451  0.4379906031112033  0.7109043353558242  1.0000
  O   O5        1.0  0.9643874943941203  0.6337296303466504  0.5150970521659408  1.0000
  O   O6        1.0  0.9643996013751072  0.25609061445189085  0.5290574307328388  1.0000
  O   O7        1.0  0.8394352464845555  0.6306948162487385  0.5208998504876814  1.0000
  O   O8        1.0  0.8394598528298651  0.43495734941540354  0.7167070638208664  1.0000
  O   O9        1.0  0.8394228031288363  0.44879633491169946  0.3390514092748649  1.0000
  O   O10       1.0  0.8394473533372809  0.2530573063134749  0.5348586950667762  1.0000
