data_image0
_chemical_formula_structural       NC10NC5H10C7OC3OC4H12C7OC6H10Zn2C4O8
_chemical_formula_sum              "N2 C46 H32 O11 Zn2"
_cell_length_a       19.4436361288709
_cell_length_b       10.299371110280156
_cell_length_c       10.299382801718286
_cell_angle_alpha    85.58971110706742
_cell_angle_beta     89.6852200800954
_cell_angle_gamma    89.43124194409341

_space_group_name_H-M_alt    "P 1"
_space_group_IT_number       1

loop_
  _space_group_symop_operation_xyz
  'x, y, z'

loop_
  _atom_site_type_symbol
  _atom_site_label
  _atom_site_symmetry_multiplicity
  _atom_site_fract_x
  _atom_site_fract_y
  _atom_site_fract_z
  _atom_site_occupancy
  N   N1        1.0  0.6480731107676894  0.40904492546787874  0.5625690671482622  1.0000
  C   C1        1.0  0.5892366167824568  0.41894693959377993  0.5769565241041374  1.0000
  C   C2        1.0  0.5159066297438454  0.4312960790322862  0.5949531842777338  1.0000
  C   C3        1.0  0.4737304866407246  0.399298407619076  0.5002679130213381  1.0000
  C   C4        1.0  0.3978263950345759  0.4097367353769552  0.5055996056460141  1.0000
  C   C5        1.0  0.3580711121078289  0.38498971589122233  0.6126641656346559  1.0000
  C   C6        1.0  0.2819526112535968  0.38890622812848874  0.5997060556517457  1.0000
  C   C7        1.0  0.2413849560083893  0.44656828133143867  0.6934970818832966  1.0000
  C   C8        1.0  0.1697232766579465  0.45020594774315636  0.6829543686163846  1.0000
  C   C9        1.0  0.1376344153313476  0.39578555202887467  0.5789070214341525  1.0000
  C   C10       1.0  0.0638435175266214  0.39948446042051033  0.5682090462901386  1.0000
  N   N2        1.0  0.0045206406503185  0.4024581886734342  0.5596085835550895  1.0000
  C   C11       1.0  0.1774770497237829  0.337416411741146  0.4854989895334094  1.0000
  C   C12       1.0  0.2491551827074389  0.3337245193663865  0.4957899052737176  1.0000
  C   C13       1.0  0.3861830514597164  0.3445300114355958  0.7437456666741604  1.0000
  C   C14       1.0  0.4448458702066468  0.3876522294617437  0.7910032534042983  1.0000
  C   C15       1.0  0.48907389530469897  0.4855097667098398  0.7166690044817667  1.0000
  H   H1        1.0  0.4958372259188942  0.37018062437221433  0.40995056405909125  1.0000
  H   H2        1.0  0.3731420827618367  0.4322306509890237  0.4124484372024919  1.0000
  H   H3        1.0  0.2652505058091835  0.4898597675134526  0.7743607533203356  1.0000
  H   H4        1.0  0.1393747741012565  0.49552109678440615  0.7558912234189554  1.0000
  H   H5        1.0  0.1531395990501827  0.29432058550231655  0.4049698702374138  1.0000
  H   H6        1.0  0.278837720543649  0.28616598834156703  0.4235486168197098  1.0000
  H   H7        1.0  0.3552021448166089  0.28031349803238936  0.80797088945378  1.0000
  H   H8        1.0  0.45997974026008037  0.3535857938118694  0.88892655977111  1.0000
  H   H9        1.0  0.45897862578134274  0.5762237536555219  0.6914481137086799  1.0000
  H   H10       1.0  0.5323542041481315  0.5110962273455524  0.77976314391037  1.0000
  C   C16       1.0  0.826253815314726  0.024380936467638836  0.5609744048560783  1.0000
  C   C17       1.0  0.8183537427669341  0.0337909239451184  0.4250565533966122  1.0000
  C   C18       1.0  0.8135922257535506  0.9213645282381918  0.35667798996024036  1.0000
  C   C19       1.0  0.8183878259450618  0.7985224668787785  0.4253673525422119  1.0000
  C   C20       1.0  0.8263465169711793  0.7871120858994218  0.5612144842808806  1.0000
  C   C21       1.0  0.8300533786118159  0.900642502678452  0.628271120103465  1.0000
  C   C22       1.0  0.8059676045979504  0.9311595053531676  0.21299602905566295  1.0000
  O   O1        1.0  0.8341731227565642  0.8455885567395153  0.14873960179762524  1.0000
  C   C23       1.0  0.7663375910208978  0.03794873726159187  0.1422151934769451  1.0000
  C   C24       1.0  0.7855853449879024  0.0827313027928267  0.014914313062980522  1.0000
  C   C25       1.0  0.7483959555882113  0.18241990784498485  0.9458432250143178  1.0000
  O   O2        1.0  0.7703777277942386  0.2237994881207066  0.8195643354470903  1.0000
  C   C26       1.0  0.7376075879297231  0.3238761874874301  0.7384024999194687  1.0000
  C   C27       1.0  0.6906896344169968  0.2373550743854671  0.004809881720470921  1.0000
  C   C28       1.0  0.6707360284645486  0.1922954539910342  0.13059958388680193  1.0000
  C   C29       1.0  0.7080476094227841  0.0928857628391162  0.19891748856689695  1.0000
  H   H11       1.0  0.8422116862312601  0.21394332337256805  0.817231734894545  1.0000
  H   H12       1.0  0.8166602792649957  0.12874758089804605  0.3720415421791601  1.0000
  H   H13       1.0  0.8152350644095547  0.711711359464601  0.3726717259663721  1.0000
  H   H14       1.0  0.836144198373503  0.8925842824167362  0.7330538208900192  1.0000
  H   H15       1.0  0.8299760071374164  0.45527083944784513  0.6132705763953048  1.0000
  H   H16       1.0  0.8300634280389294  0.04100560747805315  0.9691726109579393  1.0000
  H   H17       1.0  0.7656814363180728  0.33643252930376444  0.6442995838430545  1.0000
  H   H18       1.0  0.7386123886123329  0.41732235616871693  0.7854126460995938  1.0000
  H   H19       1.0  0.6837102652347973  0.29663543759162647  0.7190861581381052  1.0000
  H   H20       1.0  0.6608237546206552  0.3143974896553303  0.9541700756639431  1.0000
  H   H21       1.0  0.6259982219970693  0.23418714447760536  0.17512172566602313  1.0000
  H   H22       1.0  0.6908726940149572  0.05807136123963508  0.2954376457402623  1.0000
  C   C30       1.0  0.8263687638445605  0.40567201379274764  0.1797240546581731  1.0000
  C   C31       1.0  0.8986258866723952  0.4052002574397626  0.17782055048425005  1.0000
  C   C32       1.0  0.9350701495313648  0.4034742347142579  0.059801893048367916  1.0000
  C   C33       1.0  0.898458287463514  0.40523139136947295  0.9425763826222866  1.0000
  C   C34       1.0  0.8262315344428022  0.40582100597181614  0.9424647748000528  1.0000
  C   C35       1.0  0.790605696824692  0.40569317418004824  0.061600847883230614  1.0000
  C   C36       1.0  0.011364447130389976  0.4043600786427122  0.05754047411353369  1.0000
  O   O3        1.0  0.04167629120094185  0.46450916054622104  0.9627810381736022  1.0000
  C   C37       1.0  0.053271643067999364  0.3370021214978367  0.16267755873501066  1.0000
  C   C38       1.0  0.1179247519594746  0.38626747732331723  0.1932579425808274  1.0000
  C   C39       1.0  0.15815494157990262  0.32258984455015494  0.2911583529020578  1.0000
  C   C40       1.0  0.13457420226858896  0.20872138511655902  0.3586820445050187  1.0000
  C   C41       1.0  0.07083295159107683  0.1579922083298917  0.3280706114955214  1.0000
  C   C42       1.0  0.030406784442872592  0.22129474809540262  0.23027376996164484  1.0000
  H   H23       1.0  0.6900090011167742  0.40857398938192047  0.39048142866601365  1.0000
  H   H24       1.0  0.9266460768038871  0.40763296799772175  0.26818760868645675  1.0000
  H   H25       1.0  0.9264852003908172  0.4048848378027412  0.8513921804508522  1.0000
  H   H26       1.0  0.7349008994463391  0.40605766149472333  0.062264071133174115  1.0000
  H   H27       1.0  0.7984853358559157  0.40715249124537656  0.6148804370538619  1.0000
  H   H28       1.0  0.1370306100425973  0.47458795490387584  0.14219178404028354  1.0000
  H   H29       1.0  0.20766866442702292  0.3615588549611606  0.31463240970044226  1.0000
  H   H30       1.0  0.16581265927392508  0.159516603833586  0.43435063712954003  1.0000
  H   H31       1.0  0.052846570921299074  0.06919513291990809  0.3797560903987778  1.0000
  H   H32       1.0  0.9817185338925813  0.17902829691530986  0.20660559969447978  1.0000
  Zn  Zn1       1.0  0.7509361676951513  0.4071406655932326  0.5617222466087777  1.0000
  Zn  Zn2       1.0  0.9016575720275153  0.40435184290554926  0.5604660819767964  1.0000
  C   C43       1.0  0.826255331370675  0.40061916397088004  0.7982888643796353  1.0000
  C   C44       1.0  0.8263400544012534  0.41087495272559726  0.323899578471341  1.0000
  C   C45       1.0  0.8263263792988268  0.6429387085877851  0.5559939273920014  1.0000
  C   C46       1.0  0.8262689548403421  0.16855384876453394  0.5661945846354217  1.0000
  O   O4        1.0  0.8835284060141883  0.4115570971191229  0.371809491608196  1.0000
  O   O5        1.0  0.883461038138285  0.397819387886615  0.7494251771969471  1.0000
  O   O6        1.0  0.8835176389396527  0.593495499244417  0.5537703081539105  1.0000
  O   O7        1.0  0.8834717538004597  0.21588099598419896  0.567464263707758  1.0000
  O   O8        1.0  0.7691219344883901  0.595611513467684  0.5547240652996523  1.0000
  O   O9        1.0  0.7690653338859651  0.3999369624071414  0.7503788655880792  1.0000
  O   O10       1.0  0.7691327020829797  0.4136746260776567  0.37276161857801426  1.0000
  O   O11       1.0  0.7690760498477953  0.21799851567295492  0.5684164880428875  1.0000
