data_image0
_chemical_formula_structural       NC12NC2H8C7OC3OC4H12C7OC3NC3H11Zn2C4O8
_chemical_formula_sum              "N3 C45 H31 O11 Zn2"
_cell_length_a       19.240039667572717
_cell_length_b       10.299371110280156
_cell_length_c       10.298749378158432
_cell_angle_alpha    85.57454226300092
_cell_angle_beta     90.00886307587598
_cell_angle_gamma    90.01145957794125

_space_group_name_H-M_alt    "P 1"
_space_group_IT_number       1

loop_
  _space_group_symop_operation_xyz
  'x, y, z'

loop_
  _atom_site_type_symbol
  _atom_site_label
  _atom_site_symmetry_multiplicity
  _atom_site_fract_x
  _atom_site_fract_y
  _atom_site_fract_z
  _atom_site_occupancy
  N   N1        1.0  0.654510717146644  0.4214005814754014  0.5678341667837257  1.0000
  C   C1        1.0  0.5943623483315723  0.4214006654639122  0.5678340848696799  1.0000
  C   C2        1.0  0.5195443111916006  0.4214007827616415  0.5678339475950589  1.0000
  C   C3        1.0  0.4830722563985304  0.35692653764744375  0.6712317337185933  1.0000
  C   C4        1.0  0.4104015035892903  0.35681564856476533  0.6713182438355709  1.0000
  C   C5        1.0  0.3732120762453295  0.4214008753462333  0.567833719927161  1.0000
  C   C6        1.0  0.41039832732471726  0.4859862890989599  0.46434939064211234  1.0000
  C   C7        1.0  0.4830690110641223  0.48587516450529566  0.46443602318623745  1.0000
  C   C8        1.0  0.296006985789377  0.4214007966925446  0.5678336244756459  1.0000
  C   C9        1.0  0.2588105140071106  0.3081358818577298  0.609667435081114  1.0000
  C   C10       1.0  0.1861398295094511  0.3082427902947509  0.6095761401573765  1.0000
  C   C11       1.0  0.1496746988573896  0.4214006675138582  0.5678336853449226  1.0000
  C   C12       1.0  0.074856661710846  0.4214005537496184  0.5678339339859173  1.0000
  N   N2        1.0  0.014708344871632898  0.42140051290845393  0.5678341424081201  1.0000
  C   C13       1.0  0.18615707906568218  0.5345586205654234  0.5260911776643549  1.0000
  C   C14       1.0  0.2588277791758644  0.5346657091379783  0.5259997201967384  1.0000
  H   H1        1.0  0.5107884629399827  0.3070091181504071  0.7519619384737992  1.0000
  H   H2        1.0  0.38330971524657453  0.30769622540622654  0.7531643335759017  1.0000
  H   H3        1.0  0.3833035848779913  0.5351057393143284  0.3825032500587575  1.0000
  H   H4        1.0  0.5107825759978515  0.5357924837162145  0.3837060942137227  1.0000
  H   H5        1.0  0.2858968213096432  0.21897738336025596  0.6408058243245514  1.0000
  H   H6        1.0  0.1584182014877577  0.2199833905789177  0.6417479035243083  1.0000
  H   H7        1.0  0.1584488836381628  0.6228179957430442  0.4939194288403137  1.0000
  H   H8        1.0  0.285927950695314  0.6238242868162611  0.4948612862062918  1.0000
  C   C15       1.0  0.8345660007436296  0.04002916853833227  0.5677193259670363  1.0000
  C   C16       1.0  0.8265466661061748  0.049329267777481256  0.43172472475097945  1.0000
  C   C17       1.0  0.8217168672555984  0.9368330460276075  0.36330101198311504  1.0000
  C   C18       1.0  0.8265811905587482  0.8140613579515191  0.4320358324445799  1.0000
  C   C19       1.0  0.8346597417206897  0.8027619670452897  0.5679601950270026  1.0000
  C   C20       1.0  0.8384234356252626  0.916343074430555  0.6350531120393206  1.0000
  C   C21       1.0  0.8139738187631393  0.9465252851415947  0.21954395326726517  1.0000
  O   O1        1.0  0.8424590642965588  0.8614925311965799  0.1555165353834984  1.0000
  C   C22       1.0  0.7739079621492589  0.05260108146447662  0.1484281571600743  1.0000
  C   C23       1.0  0.7933244222690156  0.09777306787298734  0.021276720052665787  1.0000
  C   C24       1.0  0.7557253271021177  0.196792877664697  0.9518910831079768  1.0000
  O   O2        1.0  0.7779048473108524  0.23861212258773756  0.8257844290516259  1.0000
  C   C25       1.0  0.7447682916968472  0.33810488818792295  0.7443437601909082  1.0000
  C   C26       1.0  0.6974274342715024  0.25064618253575  0.010383266294363702  1.0000
  C   C27       1.0  0.6772972927594785  0.20518450072092742  0.13601753863956056  1.0000
  C   C28       1.0  0.7150196651026827  0.10644606242075794  0.20465094543690565  1.0000
  H   H9        1.0  0.8507599145958257  0.22981838117967923  0.8241301896107096  1.0000
  H   H10       1.0  0.8248212899172932  0.1442687075060365  0.3786913055330787  1.0000
  H   H11       1.0  0.8233812449805327  0.7272059858416693  0.37930970323632596  1.0000
  H   H12       1.0  0.8446062023768757  0.9083695781290435  0.7398949849411633  1.0000
  H   H13       1.0  0.8383412625655323  0.4709739633125565  0.6200506970550093  1.0000
  H   H14       1.0  0.838258391101491  0.05688131254664608  0.9759007021764887  1.0000
  H   H15       1.0  0.7731125481843169  0.3512049141734681  0.65046631524267  1.0000
  H   H16       1.0  0.7457961620427717  0.43155714392637146  0.7913661025681438  1.0000
  H   H17       1.0  0.6902986706261162  0.30987343254583277  0.724578170216124  1.0000
  H   H18       1.0  0.6672338136542757  0.3271502229444565  0.959491249354647  1.0000
  H   H19       1.0  0.6321005432501989  0.2462377761574126  0.18017173906234474  1.0000
  H   H20       1.0  0.6976896740633822  0.07128870898383344  0.3010363549759105  1.0000
  C   C29       1.0  0.8345808159918948  0.42142356679386483  0.1864387037923141  1.0000
  C   C30       1.0  0.8725594952590107  0.5382889288617927  0.1764559182391321  1.0000
  C   C31       1.0  0.8910665481017896  0.5981850364366599  0.05416950227060746  1.0000
  C   C32       1.0  0.8725622634941619  0.5383377905425435  0.9412119042474609  1.0000
  C   C33       1.0  0.8346448995091925  0.4213675341539025  0.949240795837456  1.0000
  C   C34       1.0  0.8157351561373108  0.3638332681773182  0.07227667354607226  1.0000
  C   C35       1.0  0.9317352886311364  0.7209536283092388  0.04352812912762727  1.0000
  O   O3        1.0  0.9751657260544505  0.7392965180819562  0.9521870008627147  1.0000
  C   C36       1.0  0.9231360327960896  0.822904975002902  0.13645001123740808  1.0000
  C   C37       1.0  0.8581169581139598  0.8454791101186667  0.19316141795230113  1.0000
  C   C38       1.0  0.8503545130417687  0.9429816486538258  0.27989248301048497  1.0000
  N   N3        1.0  0.7841857190054011  0.9648334036459669  0.3375715472872973  1.0000
  C   C39       1.0  0.9077149062358378  0.019233148404458333  0.3093142270287672  1.0000
  C   C40       1.0  0.9721865290739967  0.9986096747423081  0.25214410225875583  1.0000
  C   C41       1.0  0.9799089592749298  0.9014188083520476  0.165789940261738  1.0000
  H   H21       1.0  0.7637408005457226  0.19959187729205619  0.41274135055700834  1.0000
  H   H22       1.0  0.8884375144485842  0.5821349632406421  0.26401591203896957  1.0000
  H   H23       1.0  0.8872256763020351  0.5838599881851483  0.8468199641911043  1.0000
  H   H24       1.0  0.7864637563151439  0.27374876931775294  0.0792198088971896  1.0000
  H   H25       1.0  0.7632517287395334  0.20011483629183902  0.757127011545569  1.0000
  H   H26       1.0  0.8132652648815487  0.7884715947109848  0.169100426042748  1.0000
  H   H27       1.0  0.7410810411408945  0.908561068549457  0.31632578060541605  1.0000
  H   H28       1.0  0.7778265571591636  0.03735216450631951  0.4020821714602083  1.0000
  H   H29       1.0  0.9023836257104678  0.09484788392533217  0.37607117070944396  1.0000
  H   H30       1.0  0.016296029549251356  0.05807701911710961  0.2747992270498547  1.0000
  H   H31       1.0  0.03039904199057597  0.8867740309565704  0.12278484524697486  1.0000
  Zn  Zn1       1.0  0.7584559811858269  0.4213970939139504  0.5678416477113897  1.0000
  Zn  Zn2       1.0  0.9107630991924334  0.4213934061427991  0.5678372579281437  1.0000
  C   C42       1.0  0.8346306150114784  0.416204432552171  0.8050532355841227  1.0000
  C   C43       1.0  0.8345901287678618  0.4265877060851462  0.33062579800210234  1.0000
  C   C44       1.0  0.8346380044251105  0.6585896033774259  0.5627390432810773  1.0000
  C   C45       1.0  0.834582687196525  0.18420097494337861  0.5729400590584033  1.0000
  O   O4        1.0  0.8923930110525609  0.42831377313824404  0.37901463629530996  1.0000
  O   O5        1.0  0.8924253109951547  0.4144745868647022  0.7566606913600973  1.0000
  O   O6        1.0  0.8924304989852271  0.6102036776046631  0.5609902671111429  1.0000
  O   O7        1.0  0.8923877710833443  0.23258469169697404  0.5746849631658235  1.0000
  O   O8        1.0  0.776831257319971  0.6102058083624489  0.5609939424683767  1.0000
  O   O9        1.0  0.7768260695126586  0.4144782779416727  0.7566642979587419  1.0000
  O   O10       1.0  0.7767937694795031  0.4283174190736112  0.3790166813474185  1.0000
  O   O11       1.0  0.7767885295144856  0.2325883283363226  0.5746871055910401  1.0000
