data_image0
_chemical_formula_structural       NC10NC3NCH9C7OC6H10C7OC3NC3H11Zn2C4O8
_chemical_formula_sum              "N4 C44 H30 O10 Zn2"
_cell_length_a       19.437513618241372
_cell_length_b       10.299379429549807
_cell_length_c       10.298749378158432
_cell_angle_alpha    85.5342726072926
_cell_angle_beta     90.35618214226261
_cell_angle_gamma    89.52020702266324

_space_group_name_H-M_alt    "P 1"
_space_group_IT_number       1

loop_
  _space_group_symop_operation_xyz
  'x, y, z'

loop_
  _atom_site_type_symbol
  _atom_site_label
  _atom_site_symmetry_multiplicity
  _atom_site_fract_x
  _atom_site_fract_y
  _atom_site_fract_z
  _atom_site_occupancy
  N   N1        1.0  0.6476984052661493  0.4106802019785383  0.5750829685449459  1.0000
  C   C1        1.0  0.5887643838619308  0.4276915532108243  0.5721015985248521  1.0000
  C   C2        1.0  0.5153230581331683  0.44894567558948695  0.568400895127759  1.0000
  C   C3        1.0  0.4735610910659831  0.34775207520092777  0.5567709568142423  1.0000
  C   C4        1.0  0.3976700464739361  0.3578184006156495  0.5495459694585125  1.0000
  C   C5        1.0  0.3581024566976698  0.4386616987079093  0.6152698822452463  1.0000
  C   C6        1.0  0.2819193348629855  0.43005420888822665  0.6068276357723279  1.0000
  C   C7        1.0  0.2487863422063826  0.308702531315576  0.6115078084886276  1.0000
  C   C8        1.0  0.1770508739796408  0.30233148325380643  0.604341045173699  1.0000
  C   C9        1.0  0.1374778268934152  0.416839349910997  0.5928565137821049  1.0000
  C   C10       1.0  0.0636278702701527  0.41013012891704026  0.5855217460691697  1.0000
  N   N2        1.0  0.0042576032217762  0.40473650526663896  0.5796250510960079  1.0000
  C   C11       1.0  0.169894324484777  0.5378803291524026  0.5889217743859811  1.0000
  C   C12       1.0  0.24161420089988822  0.5445053723893454  0.5961504882810118  1.0000
  C   C13       1.0  0.3867963151197277  0.5309377777969124  0.7051698746418464  1.0000
  N   N3        1.0  0.4437777912884819  0.5941567002646484  0.6847449678179309  1.0000
  C   C14       1.0  0.4876036949360204  0.5849125649935274  0.5716304766480775  1.0000
  H   H1        1.0  0.4959448655829943  0.2526928361949534  0.5446772192189677  1.0000
  H   H2        1.0  0.37294914643303173  0.2883116622058186  0.4912436766233583  1.0000
  H   H3        1.0  0.2782394321891146  0.21878437356886238  0.6225565652739058  1.0000
  H   H4        1.0  0.1524591822421866  0.20809980087892876  0.608256807952291  1.0000
  H   H5        1.0  0.1397562678459444  0.627143185139319  0.5801855602068835  1.0000
  H   H6        1.0  0.2657243628863905  0.6391498778872873  0.5922191405906478  1.0000
  H   H7        1.0  0.35680399027537  0.5513112442762367  0.7895376527703386  1.0000
  H   H8        1.0  0.530356053075923  0.6552277000667184  0.5773732853312097  1.0000
  H   H9        1.0  0.4579241785875644  0.6130369043548591  0.48096869563347266  1.0000
  C   C15       1.0  0.8259888218779449  0.026316230448705458  0.5775082445327349  1.0000
  C   C16       1.0  0.867703897771583  0.015724326999465355  0.6897940302612784  1.0000
  C   C17       1.0  0.888098944346812  0.8931535068613701  0.7472707574930677  1.0000
  C   C18       1.0  0.8676201313271225  0.7805036704522188  0.6895166591128685  1.0000
  C   C19       1.0  0.825973786084865  0.7890903296835009  0.577211122158755  1.0000
  C   C20       1.0  0.8052502872102669  0.9124690356919338  0.5220535869349154  1.0000
  C   C21       1.0  0.9327444029644344  0.8818761720935449  0.8650461632970601  1.0000
  O   O1        1.0  0.9763930634100472  0.7903612517596228  0.8779593591288364  1.0000
  C   C22       1.0  0.9278694182708339  0.974315827481946  0.9681769128905073  1.0000
  C   C23       1.0  0.9867248972188246  0.002794413151624431  0.040494918448984674  1.0000
  C   C24       1.0  0.9824717379253718  0.08861793074434621  0.13894072966972393  1.0000
  C   C25       1.0  0.9194507662335916  0.14596005401113787  0.1668984036756863  1.0000
  C   C26       1.0  0.8604899946459301  0.11717419659584039  0.09682333161485279  1.0000
  C   C27       1.0  0.8644668612300661  0.03143494378842826  0.9982863269682174  1.0000
  H   H10       1.0  0.7481380442861711  0.25369974697494  0.364468499278251  1.0000
  H   H11       1.0  0.8850137516621917  0.10302078742691112  0.7318548118315846  1.0000
  H   H12       1.0  0.883729658631139  0.6859306447049581  0.7331624752315886  1.0000
  H   H13       1.0  0.7730914312195065  0.9198304968370428  0.43548910737258995  1.0000
  H   H14       1.0  0.8104539298920068  0.46497348524127896  0.5334424207822521  1.0000
  H   H15       1.0  0.03607952661574876  0.9595280263153186  0.02007465593046731  1.0000
  H   H16       1.0  0.028082648924634412  0.11062394827655564  0.19362204882326006  1.0000
  H   H17       1.0  0.9162524060739278  0.21227838305408175  0.24320463271594928  1.0000
  H   H18       1.0  0.8115782412637683  0.16087180408191104  0.11924921778653319  1.0000
  H   H19       1.0  0.8179060621214158  0.008759645292513163  0.9467529002228467  1.0000
  C   C28       1.0  0.8259495698475356  0.4077318104663932  0.19595821602782526  1.0000
  C   C29       1.0  0.8635280961919443  0.5239770429528434  0.18637174297468717  1.0000
  C   C30       1.0  0.8818397373830394  0.58357112627561  0.06427636706477857  1.0000
  C   C31       1.0  0.863530829556929  0.5240258616992943  0.9511277293526592  1.0000
  C   C32       1.0  0.826013013963261  0.40767471722173143  0.9587611557886788  1.0000
  C   C33       1.0  0.8073024160232086  0.3504492530714298  0.0815992459197028  1.0000
  C   C34       1.0  0.9220803175012471  0.7056755308826688  0.054061055965373805  1.0000
  O   O2        1.0  0.9650694605886331  0.7233027954965678  0.9632546299439899  1.0000
  C   C35       1.0  0.9135535119650643  0.8077745033665  0.1468024338977203  1.0000
  C   C36       1.0  0.849188019163512  0.8314228013746896  0.20267797784056807  1.0000
  C   C37       1.0  0.8414902004919389  0.9290589073649818  0.2892422357966322  1.0000
  N   N4        1.0  0.7759867040482387  0.9520037564507191  0.3460714496901873  1.0000
  C   C38       1.0  0.8982604030195551  0.004368173781351459  0.3193334087219504  1.0000
  C   C39       1.0  0.9620836981542781  0.9826796804411584  0.26299086437800057  1.0000
  C   C40       1.0  0.9697418620933418  0.8853559243996869  0.17680278457691823  1.0000
  H   H20       1.0  0.7558564865803655  0.1870566061441188  0.42152435773062624  1.0000
  H   H21       1.0  0.8792395292204286  0.5675635336968028  0.27410096927885497  1.0000
  H   H22       1.0  0.8780396882736912  0.5693086523709368  0.8568885205097505  1.0000
  H   H23       1.0  0.7783394288137976  0.26084270748572935  0.08823693926217735  1.0000
  H   H24       1.0  0.7553722810745553  0.1875876648094188  0.7659034817477615  1.0000
  H   H25       1.0  0.8047974427189328  0.7751521914674167  0.1780916918633344  1.0000
  H   H26       1.0  0.7333253920204281  0.8964395402536296  0.324321899548492  1.0000
  H   H27       1.0  0.7696815256541908  0.02463152531137469  0.4104506225753779  1.0000
  H   H28       1.0  0.8929722853948796  0.08007512992416599  0.3859696745161252  1.0000
  H   H29       1.0  0.00573923116237296  0.04142250459889185  0.28616018525052533  1.0000
  H   H30       1.0  0.0197240027701433  0.8698771758110839  0.13444473333361806  1.0000
  Zn  Zn1       1.0  0.7505936938957775  0.4089614895091116  0.5764012264093612  1.0000
  Zn  Zn2       1.0  0.901362321900098  0.4064445467419251  0.5783174681711793  1.0000
  C   C41       1.0  0.8259996036629882  0.40251156127557475  0.8145770650040416  1.0000
  C   C42       1.0  0.8259580584999107  0.4128960861999189  0.34014177734082285  1.0000
  C   C43       1.0  0.825972652506193  0.6449102270441698  0.5720916330504171  1.0000
  C   C44       1.0  0.8259849582464399  0.17049586088782065  0.5826272784929103  1.0000
  O   O3        1.0  0.8831768160712474  0.413668431564417  0.3892583036196331  1.0000
  O   O4        1.0  0.883210746186561  0.3998279348349436  0.7669145483873279  1.0000
  O   O5        1.0  0.8831882116011485  0.5955679357676782  0.5711058361308996  1.0000
  O   O6        1.0  0.8831992992012552  0.21792844078861573  0.5850669178355781  1.0000
  O   O7        1.0  0.7687566651446865  0.5974775963227448  0.5696517760842108  1.0000
  O   O8        1.0  0.7687791996904313  0.4017391557938361  0.7654604184814247  1.0000
  O   O9        1.0  0.7687452694918522  0.41557960738066435  0.3878026121979601  1.0000
  O   O10       1.0  0.7687677526273308  0.21983960730825314  0.5836113237936371  1.0000
