data_image0
_chemical_formula_structural       NC12NC2H8C6NCOC6H11C7OC6OCH12Zn2C4O8
_chemical_formula_sum              "N3 C45 H31 O11 Zn2"
_cell_length_a       19.240039667572717
_cell_length_b       10.29965916528486
_cell_length_c       10.299362532796529
_cell_angle_alpha    85.59689086151258
_cell_angle_beta     90.01509071760941
_cell_angle_gamma    90.0154664442568

_space_group_name_H-M_alt    "P 1"
_space_group_IT_number       1

loop_
  _space_group_symop_operation_xyz
  'x, y, z'

loop_
  _atom_site_type_symbol
  _atom_site_label
  _atom_site_symmetry_multiplicity
  _atom_site_fract_x
  _atom_site_fract_y
  _atom_site_fract_z
  _atom_site_occupancy
  N   N1        1.0  0.6544805296557081  0.42080290909676976  0.567964839988524  1.0000
  C   C1        1.0  0.5943321608390107  0.42080299305102087  0.5679647580819571  1.0000
  C   C2        1.0  0.5195141236954361  0.42080311029199446  0.5679646208198277  1.0000
  C   C3        1.0  0.48304567638900464  0.35637094379993317  0.6713530402484156  1.0000
  C   C4        1.0  0.4103749244662478  0.35626009152270477  0.6714395424277813  1.0000
  C   C5        1.0  0.37318188873937336  0.42080320278532124  0.5679643931724667  1.0000
  C   C6        1.0  0.41036453145418045  0.4853465010897402  0.4644894385234277  1.0000
  C   C7        1.0  0.48303521607838124  0.4852354133558199  0.46457606311856914  1.0000
  C   C8        1.0  0.295976798274918  0.420803124096669  0.5679642977293535  1.0000
  C   C9        1.0  0.2587785224064263  0.307557682480293  0.6097941644093061  1.0000
  C   C10       1.0  0.1861078365946312  0.30766455236024837  0.609702877844309  1.0000
  C   C11       1.0  0.1496445113416392  0.42080299494531603  0.5679643585929552  1.0000
  C   C12       1.0  0.07482647420531578  0.42080288128110377  0.5679646072114986  1.0000
  N   N2        1.0  0.014678157376710698  0.4208028405222548  0.5679648156149786  1.0000
  C   C13       1.0  0.1861286969487614  0.5339415133401222  0.5262257864783526  1.0000
  C   C14       1.0  0.2587993957420862  0.53404856328725  0.5261343373843406  1.0000
  H   H1        1.0  0.5107647153692827  0.30648636629500126  0.7520759324878776  1.0000
  H   H2        1.0  0.3832860634173029  0.30717392251884834  0.7532782212085274  1.0000
  H   H3        1.0  0.38326686171173585  0.5344326971298665  0.3826507089042557  1.0000
  H   H4        1.0  0.5107459485855901  0.5351198906848527  0.38385344663694254  1.0000
  H   H5        1.0  0.2858633052463201  0.2184138148506678  0.6409296094655335  1.0000
  H   H6        1.0  0.1583847779452762  0.2194201607017563  0.6418716061426104  1.0000
  H   H7        1.0  0.1584219321488319  0.622185880466755  0.49405707272159693  1.0000
  H   H8        1.0  0.2859010917245329  0.6231925100780338  0.49499884758524804  1.0000
  C   C15       1.0  0.8345215295381494  0.03944216294966996  0.5678493346918059  1.0000
  C   C16       1.0  0.834974552868132  0.048680776599424824  0.4310360602215335  1.0000
  C   C17       1.0  0.8362276639112961  0.9364989173664531  0.36220183249805493  1.0000
  C   C18       1.0  0.8351055467388123  0.8134905754811634  0.4313324386126496  1.0000
  C   C19       1.0  0.8346438199415462  0.8021535866589418  0.5680914905584435  1.0000
  C   C20       1.0  0.8345989865600271  0.9157370019595112  0.635578015673161  1.0000
  N   N3        1.0  0.8356230698971525  0.9495283769115083  0.2221384845665062  1.0000
  C   C21       1.0  0.8681910275946009  0.8583748438572847  0.14241395326242712  1.0000
  O   O1        1.0  0.9161439434159897  0.7855707152422107  0.18939105218255947  1.0000
  C   C22       1.0  0.8479695036864312  0.8521354575551986  0.004050484580616187  1.0000
  C   C23       1.0  0.7836952610162209  0.9019784383010915  0.9577056527111014  1.0000
  C   C24       1.0  0.7650526606331465  0.8949247358136451  0.8271856356554066  1.0000
  C   C25       1.0  0.8100367247364489  0.8378113439067022  0.7417307227115857  1.0000
  C   C26       1.0  0.8736989434923906  0.7871804168272666  0.7866993630852113  1.0000
  C   C27       1.0  0.8926068602280883  0.7938777544767143  0.9171149076177989  1.0000
  H   H9        1.0  0.8330036033963262  0.22927902637112063  0.825923026747651  1.0000
  H   H10       1.0  0.8348869729821095  0.14327344913021434  0.37721416032730404  1.0000
  H   H11       1.0  0.8333720424139106  0.7266836603556612  0.378528178969171  1.0000
  H   H12       1.0  0.8342590502021346  0.9077496853895431  0.7410456113936197  1.0000
  H   H13       1.0  0.8335420387575856  0.47035563614478565  0.6205519084212523  1.0000
  H   H14       1.0  0.815785608780349  0.03564712838814543  0.17619900182094916  1.0000
  H   H15       1.0  0.7472835821771312  0.9446951733767445  0.022186688725097214  1.0000
  H   H16       1.0  0.7155153199799523  0.9333473188401669  0.7924006161428467  1.0000
  H   H17       1.0  0.7954674084713373  0.8324228733267683  0.6407753063488317  1.0000
  H   H18       1.0  0.9084659141704786  0.7426673633217659  0.7204546443910647  1.0000
  H   H19       1.0  0.9423179325344057  0.7542683666829795  0.9496812646204287  1.0000
  C   C28       1.0  0.8345284196245344  0.42067736123517774  0.18660350647052537  1.0000
  C   C29       1.0  0.7685439333229692  0.3619981750514918  0.18987254164678413  1.0000
  C   C30       1.0  0.7349638086702631  0.3337253408176375  0.07435025831285458  1.0000
  C   C31       1.0  0.7687396857021502  0.36216172888463016  0.954618293687842  1.0000
  C   C32       1.0  0.8346369513265534  0.42091840971113714  0.949337358074366  1.0000
  C   C33       1.0  0.8670940487441939  0.45009282072898604  0.06586877407101888  1.0000
  C   C34       1.0  0.6656390749679532  0.27042921306494083  0.08013298326365459  1.0000
  O   O2        1.0  0.6514264592511737  0.19122454130143907  0.17600439886527575  1.0000
  C   C35       1.0  0.6124405882964171  0.2969797968540284  0.9772266126080695  1.0000
  C   C36       1.0  0.6071156265386404  0.4203493572295369  0.9094123882484588  1.0000
  C   C37       1.0  0.5562470463264474  0.44452838276374407  0.8137244868986784  1.0000
  C   C38       1.0  0.5094788462396822  0.3468664610839587  0.7846446748013163  1.0000
  C   C39       1.0  0.5140729142889243  0.22369045060768267  0.8533771767638014  1.0000
  C   C40       1.0  0.5649352456983657  0.1993842290457981  0.9491374427359598  1.0000
  O   O3        1.0  0.45945066180282296  0.3760253464792973  0.6876693928705033  1.0000
  C   C41       1.0  0.40876097725628974  0.28626628226201123  0.6482682818865992  1.0000
  H   H20       1.0  0.9591596678675194  0.5309135497243054  0.38774279842718173  1.0000
  H   H21       1.0  0.7428067196461052  0.33925779301594416  0.28239940588555257  1.0000
  H   H22       1.0  0.7438901579573283  0.33708226941172414  0.8655562614853296  1.0000
  H   H23       1.0  0.9179291641576949  0.4954151402415845  0.06252769899131327  1.0000
  H   H24       1.0  0.8600330576617414  0.442975893373579  0.6198751606951802  1.0000
  H   H25       1.0  0.641770893532731  0.49859817284170704  0.9312614348543766  1.0000
  H   H26       1.0  0.5529508230499034  0.5399854498272589  0.7621911619927051  1.0000
  H   H27       1.0  0.4786193962900541  0.1461274068647942  0.8336251237759864  1.0000
  H   H28       1.0  0.5675561691772024  0.10374529814958322  0.0005575178488985699  1.0000
  H   H29       1.0  0.3761226221055186  0.3349601772841766  0.5702003511704734  1.0000
  H   H30       1.0  0.3748171745506114  0.25405406094194216  0.7318077320782739  1.0000
  H   H31       1.0  0.43465600868704873  0.20094839962194788  0.6095853592594982  1.0000
  Zn  Zn1       1.0  0.7584257939999663  0.42079942454668284  0.5679723202405815  1.0000
  Zn  Zn2       1.0  0.9107329116128876  0.42079573516952995  0.5679679308436341  1.0000
  C   C42       1.0  0.8346140469349659  0.41569928988369753  0.805162671885503  1.0000
  C   C43       1.0  0.8345463221477608  0.42589750841688834  0.3307777071368536  1.0000
  C   C44       1.0  0.8346163996431853  0.6579832848409106  0.5628705920826431  1.0000
  C   C45       1.0  0.8345439172274283  0.18361195321376278  0.5730698556840563  1.0000
  O   O4        1.0  0.8923520868684991  0.4276423717786204  0.3791622183758263  1.0000
  O   O5        1.0  0.8924058601253395  0.41395064655046787  0.756774455040655  1.0000
  O   O6        1.0  0.8924069809907349  0.609598037023396  0.5611218867943992  1.0000
  O   O7        1.0  0.8923509140186366  0.2319949905661991  0.5748146892523718  1.0000
  O   O8        1.0  0.7768077396192723  0.6096001691526849  0.5611255618265112  1.0000
  O   O9        1.0  0.776806618991045  0.4139543389283393  0.7567780613230917  1.0000
  O   O10       1.0  0.7767528455510194  0.4276460184080204  0.3791642632513823  1.0000
  O   O11       1.0  0.7767516727106788  0.23199862793776282  0.5748168314923059  1.0000
