data_image0
_chemical_formula_structural       NC10NC3NCH9C12ClH9C13OH12Zn2C4O8
_chemical_formula_sum              "N3 C43 H30 Cl1 O9 Zn2"
_cell_length_a       19.437513618241372
_cell_length_b       10.299768534541528
_cell_length_c       10.299153481560893
_cell_angle_alpha    85.58394017871096
_cell_angle_beta     90.3641705825548
_cell_angle_gamma    89.54057453160664

_space_group_name_H-M_alt    "P 1"
_space_group_IT_number       1

loop_
  _space_group_symop_operation_xyz
  'x, y, z'

loop_
  _atom_site_type_symbol
  _atom_site_label
  _atom_site_symmetry_multiplicity
  _atom_site_fract_x
  _atom_site_fract_y
  _atom_site_fract_z
  _atom_site_occupancy
  N   N1        1.0  0.6478639587992492  0.4099241850802098  0.5757692679348555  1.0000
  C   C1        1.0  0.5889329535555847  0.4269329349334596  0.5727951256566974  1.0000
  C   C2        1.0  0.515495397983579  0.4481838182507285  0.5691034508702457  1.0000
  C   C3        1.0  0.47371338044913885  0.34699222044701544  0.5574326852881566  1.0000
  C   C4        1.0  0.39782372853130127  0.35705450123013094  0.5502123779866923  1.0000
  C   C5        1.0  0.3582762091958692  0.437922089568185  0.6159647418779777  1.0000
  C   C6        1.0  0.282090846710076  0.4293113508134019  0.6075195728106054  1.0000
  C   C7        1.0  0.24893514697739588  0.30797062032174294  0.612149410366212  1.0000
  C   C8        1.0  0.1771979543578552  0.3015967463106308  0.6049805515858528  1.0000
  C   C9        1.0  0.1376458262058568  0.4160910404834719  0.5935440383877237  1.0000
  C   C10       1.0  0.06379406891144969  0.40937894098639954  0.5862070483037504  1.0000
  N   N2        1.0  0.004422354268417997  0.4039830031869489  0.580308566753503  1.0000
  C   C11       1.0  0.1700850254017408  0.5371214371626514  0.5896594511374755  1.0000
  C   C12       1.0  0.2418066788884818  0.5437493163518026  0.5968903605558682  1.0000
  C   C13       1.0  0.3869940449700495  0.5302327212919078  0.7058961104034462  1.0000
  N   N3        1.0  0.4439860589891884  0.59343768889234  0.6854987537241967  1.0000
  C   C14       1.0  0.4878020850676964  0.584142329558134  0.5723888042773362  1.0000
  H   H1        1.0  0.4960782360326985  0.25193432640657876  0.5453006816531374  1.0000
  H   H2        1.0  0.37308544362982576  0.28752605536802345  0.49188575619562047  1.0000
  H   H3        1.0  0.2783719560073944  0.21806405199166032  0.6231603106254149  1.0000
  H   H4        1.0  0.1525886503971721  0.20737369369255454  0.6088572074576686  1.0000
  H   H5        1.0  0.1399632913351152  0.62637381219576  0.5809606528343827  1.0000
  H   H6        1.0  0.2659345303689843  0.6383851550067063  0.5929982909813221  1.0000
  H   H7        1.0  0.3570116468451651  0.5506434164294565  0.7902660534249176  1.0000
  H   H8        1.0  0.5305682075202941  0.6544550003411564  0.5781601547044599  1.0000
  H   H9        1.0  0.45812139917214484  0.6122230358524972  0.4817453011894335  1.0000
  C   C15       1.0  0.826081563737558  0.025589198699197624  0.5780360297646008  1.0000
  C   C16       1.0  0.8305917764476223  0.03502818674826691  0.44162354244282587  1.0000
  C   C17       1.0  0.8329432804997227  0.9226705305084959  0.37251048121274644  1.0000
  C   C18       1.0  0.8307231813999636  0.799738285583357  0.44164070542090256  1.0000
  C   C19       1.0  0.8262113501645357  0.788307795442374  0.5780531100871467  1.0000
  C   C20       1.0  0.8239163145101417  0.9017896480526718  0.6454868683209849  1.0000
  C   C21       1.0  0.83771562433401  0.9337098455577723  0.22819745317303286  1.0000
  C   C22       1.0  0.7985636134570627  0.027874171068310364  0.15323467234671062  1.0000
  C   C23       1.0  0.8031167810799219  0.03806787565340542  0.01741191441279821  1.0000
  C   C24       1.0  0.8467552578104263  0.9546198617634255  0.9548592181504763  1.0000
  C   C25       1.0  0.885895760276329  0.8607674015079128  0.028310621089390645  1.0000
  C   C26       1.0  0.8814647738182771  0.8501794153421773  0.16414957787526596  1.0000
  Cl  Cl1       1.0  0.8523912235745488  0.9676566987395644  0.784444747041237  1.0000
  H   H10       1.0  0.82432764900883  0.349446816900731  0.6300121999484736  1.0000
  H   H11       1.0  0.8332361520841336  0.1299765704294451  0.3889242395210044  1.0000
  H   H12       1.0  0.8315720501178153  0.7128703511413493  0.38870498716051594  1.0000
  H   H13       1.0  0.8204361962435314  0.8937397261699004  0.7507228139669044  1.0000
  H   H14       1.0  0.824519525507163  0.4564980431551744  0.6300378717751429  1.0000
  H   H15       1.0  0.7637846040257226  0.09244726413274139  0.19953570464072223  1.0000
  H   H16       1.0  0.7725612315174528  0.11066973419485504  0.9609107505115858  1.0000
  H   H17       1.0  0.9199072268275488  0.7961598444343878  0.9803103271334223  1.0000
  H   H18       1.0  0.9128931334065749  0.7778557579199872  0.21916753759529034  1.0000
  C   C27       1.0  0.8260873403334799  0.40680207337964736  0.19667128665840572  1.0000
  C   C28       1.0  0.7549520288787315  0.38360743350406046  0.196436652614262  1.0000
  C   C29       1.0  0.7190097498042202  0.37200794848270413  0.07915172299685591  1.0000
  C   C30       1.0  0.7551144052017669  0.3839220232920746  0.9611307586537151  1.0000
  C   C31       1.0  0.8262055814361426  0.40709496462445444  0.959417882983221  1.0000
  C   C32       1.0  0.8612769431622992  0.41839607529178346  0.07771632981132526  1.0000
  C   C33       1.0  0.643802184667675  0.34749858519015575  0.07987672999168804  1.0000
  C   C34       1.0  0.6003002885722275  0.41345948300137914  0.9866566039723597  1.0000
  C   C35       1.0  0.5295255375985173  0.3904386676061873  0.9874168341907712  1.0000
  C   C36       1.0  0.5010612973946713  0.30020173054771737  0.08051262368640222  1.0000
  C   C37       1.0  0.5441018326656377  0.2353447878878716  0.17464542866637878  1.0000
  C   C38       1.0  0.6148798424295232  0.2583359019246394  0.17406338899417206  1.0000
  C   C39       1.0  0.4248143681166378  0.2781857927708582  0.0834578577356655  1.0000
  O   O1        1.0  0.3939275156297845  0.36628752960815447  0.16257359150508321  1.0000
  H   H19       1.0  0.9602714092599673  0.45141418723007765  0.40434144366450914  1.0000
  H   H20       1.0  0.7272130324759035  0.3763060218633518  0.2875589319034224  1.0000
  H   H21       1.0  0.727815481281131  0.3733247520207006  0.8706038742436597  1.0000
  H   H22       1.0  0.9161113229998541  0.4362737101052639  0.07711095361749809  1.0000
  H   H23       1.0  0.8535406607779201  0.41609415933163807  0.6312768848548655  1.0000
  H   H24       1.0  0.6208785057668609  0.48437200365739885  0.9143623629796033  1.0000
  H   H25       1.0  0.49689157985838067  0.44326216128102286  0.9155215987699287  1.0000
  H   H26       1.0  0.5228895825720148  0.16664920359688584  0.24837152302545348  1.0000
  H   H27       1.0  0.6471002788638309  0.20531880063318497  0.2464765692951072  1.0000
  H   H28       1.0  0.4138775661579557  0.17658175504608598  0.12213544504975359  1.0000
  H   H29       1.0  0.40303970700229513  0.29191374859034736  0.9830500552749681  1.0000
  H   H30       1.0  0.3439104991417937  0.3477675658063455  0.1612330520206362  1.0000
  Zn  Zn1       1.0  0.7507590157252424  0.40820620203205765  0.5770867204821242  1.0000
  Zn  Zn2       1.0  0.9015273033906066  0.40569032091220203  0.5790017839620145  1.0000
  C   C40       1.0  0.8261808030324705  0.40186601129136984  0.8152423206942697  1.0000
  C   C41       1.0  0.8261071627669632  0.4120321228282981  0.3408463321670139  1.0000
  C   C42       1.0  0.8261824685429996  0.6441358523946503  0.5728746421125046  1.0000
  C   C43       1.0  0.8261054455549997  0.16976072232635311  0.5832140792996949  1.0000
  O   O2        1.0  0.8833295938261562  0.4128269457539659  0.3899595509779743  1.0000
  O   O3        1.0  0.8833880135459324  0.3991607129550248  0.767582216880656  1.0000
  O   O4        1.0  0.883388587379986  0.5947966869554613  0.5718685918674957  1.0000
  O   O5        1.0  0.8833289685315865  0.2171909818647473  0.5856730779620725  1.0000
  O   O6        1.0  0.7689572991344447  0.5967055419394702  0.570415425821718  1.0000
  O   O7        1.0  0.7689567255520076  0.401071128197656  0.7661289816236141  1.0000
  O   O8        1.0  0.7688983056282686  0.4147373151408369  0.3885047543018323  1.0000
  O   O9        1.0  0.768897680344397  0.21910134200035866  0.5842183786546449  1.0000
