data_image0
_chemical_formula_structural       NC8NC6H8C7F3H5C7ONH5Zn2C4O8
_chemical_formula_sum              "N3 C32 H18 F3 O9 Zn2"
_cell_length_a       17.457602349358154
_cell_length_b       9.272718291674593
_cell_length_c       10.297855452804892
_cell_angle_alpha    85.97219489806729
_cell_angle_beta     92.86875916188056
_cell_angle_gamma    91.24279848523653

_space_group_name_H-M_alt    "P 1"
_space_group_IT_number       1

loop_
  _space_group_symop_operation_xyz
  'x, y, z'

loop_
  _atom_site_type_symbol
  _atom_site_label
  _atom_site_symmetry_multiplicity
  _atom_site_fract_x
  _atom_site_fract_y
  _atom_site_fract_z
  _atom_site_occupancy
  N   N1        1.0  0.7161667459337662  0.613087732178387  0.6366833650261741  1.0000
  C   C1        1.0  0.6552908222680492  0.5621173520790124  0.6257359912703127  1.0000
  C   C2        1.0  0.5795585644229931  0.4987165382349526  0.6121270430553027  1.0000
  C   C3        1.0  0.5208481999192239  0.543265355824001  0.68732680973901  1.0000
  C   C4        1.0  0.4465446976532101  0.4822154610459775  0.6743476195765343  1.0000
  C   C5        1.0  0.384233267921549  0.529252360141969  0.7539861061928674  1.0000
  C   C6        1.0  0.3096100136091369  0.5497725570978185  0.6983449333399134  1.0000
  C   C7        1.0  0.2509004436438256  0.5941171864157088  0.773651353138952  1.0000
  C   C8        1.0  0.1748365513498257  0.6153106927367915  0.7157986615961129  1.0000
  N   N2        1.0  0.11369412638904965  0.6323431906525107  0.6692852028711822  1.0000
  C   C9        1.0  0.2663208607893932  0.6182112980614562  0.9051093023666075  1.0000
  C   C10       1.0  0.3401576770359941  0.5981227066359049  0.9611409371164357  1.0000
  C   C11       1.0  0.39885481788463123  0.5539777527644003  0.8862936153645891  1.0000
  C   C12       1.0  0.43224328423013564  0.3758653981071085  0.5847306164773274  1.0000
  C   C13       1.0  0.4909406788002451  0.3316257470203512  0.5099329272768411  1.0000
  C   C14       1.0  0.5644588805582631  0.3928001624101899  0.5234629750566144  1.0000
  H   H1        1.0  0.5328576747220756  0.6267014337763449  0.7545095890850795  1.0000
  H   H2        1.0  0.2973384889946687  0.533195353673896  0.5961942309600889  1.0000
  H   H3        1.0  0.22132004562021323  0.6524669815657724  0.9641776597311965  1.0000
  H   H4        1.0  0.3519086957579063  0.616428969080312  0.06292949286332294  1.0000
  H   H5        1.0  0.455402539962368  0.5373200657972541  0.9323009146721815  1.0000
  H   H6        1.0  0.3759580581834142  0.32554953064939407  0.5737513524410718  1.0000
  H   H7        1.0  0.4794402155628572  0.2494293370429075  0.44155962158961604  1.0000
  H   H8        1.0  0.6094635100303061  0.3575789673101719  0.4648995929934525  1.0000
  C   C15       1.0  0.9166047956567435  0.19941480268051495  0.6502523224154839  1.0000
  C   C16       1.0  0.8698549762082076  0.2784922818209342  0.5566537931911864  1.0000
  C   C17       1.0  0.8176768946030848  0.2084591670763047  0.4728588120715755  1.0000
  C   C18       1.0  0.8142817154978862  0.05700355804123024  0.48017419139783685  1.0000
  C   C19       1.0  0.861089092444882  0.9769707195032339  0.5709667601235502  1.0000
  C   C20       1.0  0.9132634365925191  0.04600533881940641  0.6557280481528773  1.0000
  C   C21       1.0  0.7695324967739847  0.2950691234060625  0.37088249758521186  1.0000
  F   F1        1.0  0.7498189537492982  0.42551805275261684  0.4164718448074778  1.0000
  F   F2        1.0  0.7025773417392527  0.2204343833086746  0.3382540398634841  1.0000
  F   F3        1.0  0.8109201985385652  0.32189317934349493  0.26049884699830606  1.0000
  H   H9        1.0  0.007660011085900645  0.28242693119178397  0.9380388380407925  1.0000
  H   H10       1.0  0.8729172023912682  0.39561141459324256  0.5508594882062234  1.0000
  H   H11       1.0  0.7759462144316177  7.445876006384724e-05  0.41456910332238106  1.0000
  H   H12       1.0  0.857958290859122  0.8600494094949916  0.5724575938955532  1.0000
  H   H13       1.0  0.07791744443243491  0.9380160548571617  0.8255652588133835  1.0000
  C   C22       1.0  0.9149636473773831  0.6228548255309254  0.27155154865934006  1.0000
  C   C23       1.0  0.8363659691858986  0.6538055594631305  0.2619525269412044  1.0000
  C   C24       1.0  0.7963369828897352  0.6682541693397637  0.14006420557247834  1.0000
  C   C25       1.0  0.8362739821147014  0.6534767757938207  0.026709868086306935  1.0000
  C   C26       1.0  0.9149045896213607  0.6225652793685807  0.034428763858472815  1.0000
  C   C27       1.0  0.9536896523100958  0.6071218495466559  0.15726342600073573  1.0000
  C   C28       1.0  0.7133784169955054  0.7012894129997047  0.13250828737487663  1.0000
  O   O1        1.0  0.6847510357573543  0.7614224433009765  0.22438777300425428  1.0000
  N   N3        1.0  0.6644526799554796  0.6648272754513056  0.023640278229892345  1.0000
  H   H14       1.0  0.8059857802031265  0.6654786773642793  0.349707961303936  1.0000
  H   H15       1.0  0.8067434926349224  0.6686710105234588  0.9320096977761433  1.0000
  H   H16       1.0  0.01426519182146424  0.5832641593606326  0.16390802205010524  1.0000
  H   H17       1.0  0.6070503398619658  0.6950715056022962  0.01807047086488222  1.0000
  H   H18       1.0  0.6829429699475377  0.5999484297665372  0.9530224108529071  1.0000
  Zn  Zn1       1.0  0.8308845755778484  0.6186405730779903  0.6460990260261754  1.0000
  Zn  Zn2       1.0  0.9989763283176974  0.6267785271588142  0.6598800999003493  1.0000
  C   C29       1.0  0.9149367121450713  0.6168774328001362  0.8901913661648891  1.0000
  C   C30       1.0  0.9149260201188814  0.6285435750419537  0.4157880495040642  1.0000
  C   C31       1.0  0.91389148778228  0.8859834857147313  0.6495165451185347  1.0000
  C   C32       1.0  0.9159711939536939  0.35943578746474025  0.6564629238976469  1.0000
  O   O2        1.0  0.978703361034828  0.6335347938121858  0.4694249418440218  1.0000
  O   O3        1.0  0.9787371265011603  0.6180616455757254  0.8470136090752167  1.0000
  O   O4        1.0  0.9778922345860381  0.8353681444703425  0.6526669274584671  1.0000
  O   O5        1.0  0.9795481955584613  0.4162283024892866  0.6637715214324553  1.0000
  O   O6        1.0  0.8503126509756129  0.8291907949720053  0.6422075997844428  1.0000
  O   O7        1.0  0.8511575360572422  0.6118860279644938  0.8365542233443382  1.0000
  O   O8        1.0  0.8511237709610625  0.6273591265641594  0.45896399410637123  1.0000
  O   O9        1.0  0.8519686055147133  0.4100526248940295  0.6533106710134953  1.0000
