data_image0
_chemical_formula_structural       NC10NC2NCH9C7ONCOCH8C7ONC2H11Zn2C4O8
_chemical_formula_sum              "N5 C35 H28 O11 Zn2"
_cell_length_a       19.276633427626003
_cell_length_b       10.298653850160019
_cell_length_c       10.300139412416755
_cell_angle_alpha    85.55625601834906
_cell_angle_beta     89.96960061712795
_cell_angle_gamma    90.10907691816429

_space_group_name_H-M_alt    "P 1"
_space_group_IT_number       1

loop_
  _space_group_symop_operation_xyz
  'x, y, z'

loop_
  _atom_site_type_symbol
  _atom_site_label
  _atom_site_symmetry_multiplicity
  _atom_site_fract_x
  _atom_site_fract_y
  _atom_site_fract_z
  _atom_site_occupancy
  N   N1        1.0  0.6537107854916772  0.42386105561292764  0.5674926897331909  1.0000
  C   C1        1.0  0.5936928697341258  0.42127137528241443  0.5688638877412706  1.0000
  C   C2        1.0  0.518975537338946  0.41798333442802  0.5705675329803115  1.0000
  C   C3        1.0  0.48358703892807675  0.5288717566241141  0.5771940778589689  1.0000
  C   C4        1.0  0.40741691957797294  0.5302627939276194  0.5797149453061319  1.0000
  C   C5        1.0  0.3709628835524425  0.4203662540284609  0.5716664878825735  1.0000
  C   C6        1.0  0.2939387901293908  0.42233087868551683  0.5709034483299822  1.0000
  C   C7        1.0  0.2569412486179833  0.34532312542927057  0.4876427545478026  1.0000
  C   C8        1.0  0.1844083379368618  0.34613951337243853  0.48667924478592295  1.0000
  C   C9        1.0  0.14792857779878793  0.42364571052975863  0.5690836033037854  1.0000
  C   C10       1.0  0.0732564279550439  0.4243437770097356  0.5680480570141948  1.0000
  N   N2        1.0  0.0132253278606968  0.424904917349916  0.5672154724228666  1.0000
  C   C11       1.0  0.1842586956595219  0.5004072106903932  0.6525546156797478  1.0000
  C   C12       1.0  0.2567882711999401  0.4998238691332006  0.6536075749364936  1.0000
  N   N3        1.0  0.4071986522799656  0.2997064029258583  0.5608697033288603  1.0000
  C   C13       1.0  0.4828434851229417  0.2879507382587844  0.570073295018463  1.0000
  H   H1        1.0  0.5108862564711552  0.6207444628345009  0.5799807795444412  1.0000
  H   H2        1.0  0.38152477388636935  0.6229732897125352  0.5847370865807044  1.0000
  H   H3        1.0  0.2840724648289665  0.2858638992400311  0.42188701756222  1.0000
  H   H4        1.0  0.156806272821455  0.2865526521908872  0.42146172839835705  1.0000
  H   H5        1.0  0.1565413768174605  0.5604135303083837  0.7171018825971534  1.0000
  H   H6        1.0  0.2837819911240596  0.5585920441502654  0.720288268008336  1.0000
  H   H7        1.0  0.3788245242849666  0.2135510615513669  0.5572963284619541  1.0000
  H   H8        1.0  0.4961233160899452  0.22834916468136002  0.6611460064210315  1.0000
  H   H9        1.0  0.5019329300087096  0.23646549764545322  0.48620235722356897  1.0000
  C   C14       1.0  0.8333870569248818  0.04298490376853503  0.5672380187854908  1.0000
  C   C15       1.0  0.819619204646799  0.05221739251666356  0.43286254326929097  1.0000
  C   C16       1.0  0.8122252628039779  0.9396676112758277  0.365146242762614  1.0000
  C   C17       1.0  0.8198194472269654  0.8169259827087413  0.43321181770815015  1.0000
  C   C18       1.0  0.833555719571355  0.805771028301659  0.5674814283186518  1.0000
  C   C19       1.0  0.8401098772480646  0.9193886744960907  0.6337585293342805  1.0000
  C   C20       1.0  0.7979485043533214  0.9491985743886372  0.22319479842831114  1.0000
  O   O1        1.0  0.8150821421854281  0.8562481203281789  0.15704003268971767  1.0000
  N   N4        1.0  0.7634708537971596  0.06122640605173113  0.1611617369927385  1.0000
  C   C21       1.0  0.7603913642011736  0.08917400028278122  0.022517770538135636  1.0000
  O   O2        1.0  0.7944157928644765  0.022201398907353054  0.9473356076050689  1.0000
  C   C22       1.0  0.7187638759623964  0.20225844336458265  0.9665006051131849  1.0000
  H   H10       1.0  0.8604581177575906  0.2328506954793952  0.8205129006457222  1.0000
  H   H11       1.0  0.8159523680338001  0.14734386647270248  0.38080514947431365  1.0000
  H   H12       1.0  0.8143808738239003  0.7298248124445037  0.3814654485307276  1.0000
  H   H13       1.0  0.8507015635329469  0.9115173818692205  0.7373218845038063  1.0000
  H   H14       1.0  0.8394158399229537  0.4740104278956165  0.6189839805768893  1.0000
  H   H15       1.0  0.737287828752399  0.12410944951505608  0.21908346869255912  1.0000
  H   H16       1.0  0.7461941832895365  0.2942575799375158  0.9834549638289416  1.0000
  H   H17       1.0  0.7113761952897424  0.19655126180225138  0.8601470709912281  1.0000
  C   C23       1.0  0.8335196220258876  0.4245296154284041  0.18600054431628  1.0000
  C   C24       1.0  0.7658983968762417  0.3734490988935255  0.18917885189925765  1.0000
  C   C25       1.0  0.7314329408805269  0.3492950709876661  0.07359736283547602  1.0000
  C   C26       1.0  0.7657348016046592  0.373182057520944  0.9539976574265809  1.0000
  C   C27       1.0  0.8334231629507859  0.4242263581777048  0.9487189112086428  1.0000
  C   C28       1.0  0.866826822021666  0.4500192264482503  0.0652081379567071  1.0000
  C   C29       1.0  0.6604785363383833  0.2942956310765519  0.0774235279938762  1.0000
  O   O3        1.0  0.646345059558572  0.20411898525778913  0.0054906933252865135  1.0000
  N   N5        1.0  0.6073357656734436  0.34170429329929214  0.16015775055626946  1.0000
  C   C30       1.0  0.5493241847577519  0.25579793688701513  0.2007493573255379  1.0000
  C   C31       1.0  0.606882094118955  0.47851215782709633  0.19067552666702417  1.0000
  H   H18       1.0  0.8596182637818542  0.4430235668730717  0.5122969871042151  1.0000
  H   H19       1.0  0.7403245173515265  0.3501865284811172  0.2817263595730739  1.0000
  H   H20       1.0  0.7392225173445649  0.35307324987813216  0.8649747473815231  1.0000
  H   H21       1.0  0.9189814365598553  0.48944068845564453  0.06198856465159408  1.0000
  H   H22       1.0  0.9612789950712344  0.5196700248689314  0.7315847392398274  1.0000
  H   H23       1.0  0.5140012207184287  0.3022051275922879  0.2686120019073013  1.0000
  H   H24       1.0  0.519105897651033  0.23141222915223558  0.1141282713203269  1.0000
  H   H25       1.0  0.56954845120983  0.16469167985285882  0.25172568943872964  1.0000
  H   H26       1.0  0.5553577761289994  0.5071931675383918  0.22717076475011222  1.0000
  H   H27       1.0  0.6459238331578931  0.4948725491799126  0.2666637732983954  1.0000
  H   H28       1.0  0.6186232553571354  0.5426489043190315  0.10163923544872189  1.0000
  Zn  Zn1       1.0  0.7574589238887863  0.42415880456701194  0.5674201987787204  1.0000
  Zn  Zn2       1.0  0.9094772044144704  0.4245965125042039  0.5672986308693291  1.0000
  C   C32       1.0  0.833438691407885  0.4191095912314322  0.8045471307497652  1.0000
  C   C33       1.0  0.8334990972764821  0.42964736931370595  0.33017182555683755  1.0000
  C   C34       1.0  0.8335209177627526  0.6615902843438222  0.5622603615398067  1.0000
  C   C35       1.0  0.8334168186946244  0.18716511560257132  0.5724586635472517  1.0000
  O   O4        1.0  0.8911823529398297  0.4315253759753708  0.3785108883661088  1.0000
  O   O5        1.0  0.8911337930306037  0.417562815117472  0.756115426561051  1.0000
  O   O6        1.0  0.8911994139905012  0.6133690386164985  0.5604671472577369  1.0000
  O   O7        1.0  0.891116680120761  0.23571916165663317  0.5741590703416911  1.0000
  O   O8        1.0  0.7758193963061183  0.613036155266631  0.5605597593410133  1.0000
  O   O9        1.0  0.7757537756968335  0.4172314922183981  0.7562079698985271  1.0000
  O   O10       1.0  0.7758023358396816  0.43119400843782896  0.37860187032833226  1.0000
  O   O11       1.0  0.7757366630034064  0.23538778479085098  0.5742501496663006  1.0000
