data_image0
_chemical_formula_structural       NC5NC3H4C10H6C6F3H5Zn2C4O8
_chemical_formula_sum              "N2 C28 H15 F3 Zn2 O8"
_cell_length_a       13.859018345313864
_cell_length_b       9.275150299802176
_cell_length_c       9.272721663655245
_cell_angle_alpha    85.5566990303468
_cell_angle_beta     90.51617892937593
_cell_angle_gamma    89.48388887768701

_space_group_name_H-M_alt    "P 1"
_space_group_IT_number       1

loop_
  _space_group_symop_operation_xyz
  'x, y, z'

loop_
  _atom_site_type_symbol
  _atom_site_label
  _atom_site_symmetry_multiplicity
  _atom_site_fract_x
  _atom_site_fract_y
  _atom_site_fract_z
  _atom_site_occupancy
  N   N1        1.0  0.889483193843402  0.5702266991365448  0.400543814673721  1.0000
  C   C1        1.0  0.8176758398108749  0.5309490699636192  0.45203812790432446  1.0000
  C   C2        1.0  0.7283516669221533  0.4820929604546505  0.5160902037652086  1.0000
  C   C3        1.0  0.6400729931468008  0.5297219470839343  0.453647272434325  1.0000
  C   C4        1.0  0.5531213634607167  0.48209266917596677  0.516090079823573  1.0000
  C   C5        1.0  0.46243596028590156  0.5309489566844445  0.4520380312011994  1.0000
  N   N2        1.0  0.3895342910776203  0.5702266648402268  0.40054374581830765  1.0000
  C   C6        1.0  0.5546310846473749  0.3868203192122328  0.6409945002674322  1.0000
  C   C7        1.0  0.6427246634528264  0.33937467853949266  0.7031971358832838  1.0000
  C   C8        1.0  0.7294964276313791  0.3868206156418186  0.6409947023127203  1.0000
  H   H1        1.0  0.639045634676529  0.6034653447115039  0.35696789116847727  1.0000
  H   H2        1.0  0.48785786214118065  0.34933143232003094  0.6901429375299273  1.0000
  H   H3        1.0  0.6437498745615068  0.2657809944075429  0.7996804321427222  1.0000
  H   H4        1.0  0.7973141231437972  0.34933196488353624  0.6901433599601683  1.0000
  C   C9        1.0  0.1420737179679059  0.14653445225731376  0.4029577733523104  1.0000
  C   C10       1.0  0.19216196510652672  0.2279843511786137  0.2938675425909354  1.0000
  C   C11       1.0  0.23394201092291309  0.16120202833978192  0.17923348934684835  1.0000
  C   C12       1.0  0.22605588503933127  0.01199576534991609  0.1722131280728043  1.0000
  C   C13       1.0  0.178070297808127  0.9290984483181931  0.2806553072862421  1.0000
  C   C14       1.0  0.13695309443634862  0.9939078065338686  0.39814236165645567  1.0000
  C   C15       1.0  0.28402702278298086  0.24638029674804862  0.06764902156676489  1.0000
  C   C16       1.0  0.3259608649314367  0.317719604443346  0.9742295647151528  1.0000
  C   C17       1.0  0.37506344659406105  0.4012628979664103  0.8648394549654388  1.0000
  C   C18       1.0  0.41698920272857  0.4725968223612192  0.7714379059670646  1.0000
  H   H5        1.0  0.09769283260774042  0.4101221493898799  0.6319339826655277  1.0000
  H   H6        1.0  0.19681134103411635  0.34444501066022837  0.29609512538601734  1.0000
  H   H7        1.0  0.25786873917016795  0.9593609902546886  0.08351045622597209  1.0000
  H   H8        1.0  0.17508211320244316  0.8130640258442169  0.2744299383649143  1.0000
  H   H9        1.0  0.07630943425004677  0.8653280517617475  0.7407401775401057  1.0000
  H   H10       1.0  0.45380351445273437  0.5352340648202198  0.6894236314701558  1.0000
  C   C19       1.0  0.13697460382887727  0.5678809942584269  0.9771201384784886  1.0000
  C   C20       1.0  0.17875368476911377  0.44986732561380754  0.06051311675498439  1.0000
  C   C21       1.0  0.22893789967547673  0.34043580754565583  0.995229980954071  1.0000
  C   C22       1.0  0.2343984491540798  0.34707980124605414  0.8440424055908977  1.0000
  C   C23       1.0  0.1920656737383042  0.46208951156173356  0.7596981961364047  1.0000
  C   C24       1.0  0.14205226093723589  0.5725613135478265  0.8239799690659856  1.0000
  F   F1        1.0  0.30324410223628573  0.2548136495166444  0.21829685075937455  1.0000
  F   F2        1.0  0.34827638973084185  0.15320134380414976  0.017521420359031696  1.0000
  F   F3        1.0  0.20079172110230603  0.10902637972697615  0.10992808865143867  1.0000
  H   H11       1.0  0.07373628073390436  0.9114551875102408  0.051387086496149  1.0000
  H   H12       1.0  0.17396677305257063  0.4447414548062305  0.17738787963737201  1.0000
  H   H13       1.0  0.2705743356393342  0.2623240515745744  0.7906161895036843  1.0000
  H   H14       1.0  0.19619754424521796  0.46255096384830646  0.6430409561091006  1.0000
  H   H15       1.0  0.967428189081683  0.815913835290354  0.7013062189328787  1.0000
  Zn  Zn1       1.0  0.033787210613388075  0.5702228625291006  0.40055215283511836  1.0000
  Zn  Zn2       1.0  0.24523039334188781  0.570218725714849  0.40054731800001414  1.0000
  C   C25       1.0  0.14112503646705346  0.5659287752259012  0.6639380089653875  1.0000
  C   C26       1.0  0.13789486628884573  0.5745146342243159  0.13716159299633524  1.0000
  C   C27       1.0  0.13788160733361288  0.8337044711346897  0.393306633626232  1.0000
  C   C28       1.0  0.14113823420756955  0.3067372052809355  0.4077930550629054  1.0000
  O   O1        1.0  0.21844533871427485  0.5767330799859398  0.19087116810471375  1.0000
  O   O2        1.0  0.22105505135899814  0.5637060989744587  0.6102243554370776  1.0000
  O   O3        1.0  0.218434868609668  0.7799383682140273  0.391687596588209  1.0000
  O   O4        1.0  0.2210654486017653  0.360500820471501  0.40940781878250165  1.0000
  O   O5        1.0  0.05795208319827427  0.7799407677753893  0.39169165204668766  1.0000
  O   O6        1.0  0.0605722550070855  0.5637102315733533  0.6102283241621983  1.0000
  O   O7        1.0  0.05796253233593651  0.576737152725443  0.1908734035086641  1.0000
  O   O8        1.0  0.06058264293003112  0.36050488348881493  0.4094101623515898  1.0000
