data_image0
_chemical_formula_structural       NC12NC2H8C12H9C12H10Zn2C4O8
_chemical_formula_sum              "N2 C42 H27 Zn2 O8"
_cell_length_a       19.240039667572717
_cell_length_b       14.994057918209652
_cell_length_c       14.389300134226545
_cell_angle_alpha    83.13641900786516
_cell_angle_beta     90.2220102004637
_cell_angle_gamma    89.99018167561823

_space_group_name_H-M_alt    "P 1"
_space_group_IT_number       1

loop_
  _space_group_symop_operation_xyz
  'x, y, z'

loop_
  _atom_site_type_symbol
  _atom_site_label
  _atom_site_symmetry_multiplicity
  _atom_site_fract_x
  _atom_site_fract_y
  _atom_site_fract_z
  _atom_site_occupancy
  N   N1        1.0  0.6513574223309402  0.018274540140742264  0.9703871062347187  1.0000
  C   C1        1.0  0.5912090533349769  0.018274600229837967  0.970387047344545  1.0000
  C   C2        1.0  0.5163910158965352  0.01827468481884086  0.9703869486586734  1.0000
  C   C3        1.0  0.4801390142548864  0.9709619494635485  0.04471441064685154  1.0000
  C   C4        1.0  0.4074684569104151  0.9708832474352994  0.04477660929827107  1.0000
  C   C5        1.0  0.3700587804755807  0.018274755075739595  0.9703867850091237  1.0000
  C   C6        1.0  0.40702478281682947  0.06566638545791738  0.8959971005659773  1.0000
  C   C7        1.0  0.47969566231328636  0.06558751807202157  0.8960593872545322  1.0000
  C   C8        1.0  0.2928536898440319  0.018274703838803568  0.970386716420246  1.0000
  C   C9        1.0  0.25576362913375056  0.9392473601020872  0.00047559968141086637  1.0000
  C   C10       1.0  0.18309274037655565  0.939323467695785  0.0004099628044774732  1.0000
  C   C11       1.0  0.14652140305977351  0.01827461332324432  0.9703867601935405  1.0000
  C   C12       1.0  0.0717033664341636  0.018274527904229357  0.9703869389211416  1.0000
  N   N2        1.0  0.011555050020751799  0.018274493753755998  0.9703870887283339  1.0000
  C   C13       1.0  0.18289757648228466  0.097225812587721  0.9403635195701849  1.0000
  C   C14       1.0  0.25556807197129716  0.09730204867396021  0.9402977658335836  1.0000
  H   H1        1.0  0.5080269481723654  0.9343115495794754  0.10274720906064855  1.0000
  H   H2        1.0  0.38055047299358785  0.9347483688983361  0.10361127571397609  1.0000
  H   H3        1.0  0.3797562358369362  0.10180128406777555  0.8371623976026705  1.0000
  H   H4        1.0  0.5072375004436251  0.10223784100161581  0.8380267870733247  1.0000
  H   H5        1.0  0.28293010912043176  0.8770919841254624  0.022872750153726477  1.0000
  H   H6        1.0  0.1554531765892634  0.8777554754985966  0.023549658884523532  1.0000
  H   H7        1.0  0.1551073168543986  0.15879378750380324  0.9172238339472469  1.0000
  H   H8        1.0  0.2825880707011442  0.1594574803501228  0.9179005831850944  1.0000
  C   C15       1.0  0.8314885038373654  0.7563067284122568  0.9703774613888884  1.0000
  C   C16       1.0  0.871833441965115  0.7012187405695464  0.03563243527046789  1.0000
  C   C17       1.0  0.8717987811347918  0.6079935198043056  0.03567106788292296  1.0000
  C   C18       1.0  0.8314780719100149  0.5678037712200649  0.9704271580019019  1.0000
  C   C19       1.0  0.7911723710389617  0.6229908624670055  0.9051748457488831  1.0000
  C   C20       1.0  0.7911614354637765  0.7162140998270474  0.9051856365997073  1.0000
  C   C21       1.0  0.8314618250175827  0.46872895828869987  0.9704348227466179  1.0000
  C   C22       1.0  0.8322854472042771  0.430748374156876  0.8857314722615968  1.0000
  C   C23       1.0  0.8322991662086655  0.33752401590164405  0.8857306935262452  1.0000
  C   C24       1.0  0.8314306858990212  0.28023512164104825  0.9704047762853945  1.0000
  C   C25       1.0  0.8305776539665419  0.31811229970524807  0.05514313142315863  1.0000
  C   C26       1.0  0.830622615711357  0.41133302578613523  0.05514412602363172  1.0000
  H   H9        1.0  0.9036253766253806  0.7301292313091635  0.08660696705648141  1.0000
  H   H10       1.0  0.9040981583991982  0.5674098642076453  0.0860259269891771  1.0000
  H   H11       1.0  0.7588622348753531  0.5939755170477683  0.8548283389685907  1.0000
  H   H12       1.0  0.7593754199604722  0.7568047562677206  0.8541966792462508  1.0000
  H   H13       1.0  0.8338641043304775  0.4731565865353877  0.8193582205184717  1.0000
  H   H14       1.0  0.833169098360197  0.3104067659975447  0.8192979619784413  1.0000
  H   H15       1.0  0.8322102397864742  0.07727010250079634  0.8847160236065388  1.0000
  H   H16       1.0  0.8296964416836137  0.27573080308402403  0.12156956572169508  1.0000
  H   H17       1.0  0.8290561379084495  0.43852302951645195  0.12151497442190407  1.0000
  C   C27       1.0  0.8306632341377104  0.029445345576445223  0.6962665649285908  1.0000
  C   C28       1.0  0.8684958492724199  0.08229131534997758  0.6267261714032  1.0000
  C   C29       1.0  0.8700267829085774  0.06024092395673559  0.5350803520194822  1.0000
  C   C30       1.0  0.8338080912280578  0.9848508890315197  0.5109687056414367  1.0000
  C   C31       1.0  0.7960307803886705  0.9320179351779787  0.5806015447464714  1.0000
  C   C32       1.0  0.7944523016855277  0.9541083803078758  0.672235002803582  1.0000
  C   C33       1.0  0.8354554770027522  0.9613788445222328  0.4135858552112037  1.0000
  C   C34       1.0  0.8306723835603314  0.028890144604958333  0.33694974110315534  1.0000
  C   C35       1.0  0.8322559193254379  0.007096496800495192  0.24451569612911273  1.0000
  C   C36       1.0  0.8387127883340291  0.9166422906479417  0.22940242748467998  1.0000
  C   C37       1.0  0.8434482207776374  0.8493542278243257  0.3050841570360434  1.0000
  C   C38       1.0  0.8418209928971886  0.8713553278231269  0.39660610589317175  1.0000
  H   H18       1.0  0.789707311531963  0.01495453199395236  0.9284695868729671  1.0000
  H   H19       1.0  0.8971158257503341  0.14063525844802072  0.643122751565369  1.0000
  H   H20       1.0  0.900354992898551  0.10156153685805924  0.4833057862583583  1.0000
  H   H21       1.0  0.7668939707473555  0.8741850604596789  0.5639367427653528  1.0000
  H   H22       1.0  0.7646822360490766  0.912203703299173  0.7241626700779327  1.0000
  H   H23       1.0  0.8247602106490426  0.09831283746597937  0.349395940204406  1.0000
  H   H24       1.0  0.8248899127568485  0.10409208159022149  0.017336235367898297  1.0000
  H   H25       1.0  0.8401188329741017  0.8977622940133104  0.1591181836645147  1.0000
  H   H26       1.0  0.848595174259811  0.7798506730356796  0.2927464464321048  1.0000
  H   H27       1.0  0.846474241905488  0.8180662725669572  0.4541080635479089  1.0000
  Zn  Zn1       1.0  0.7553027020564949  0.01827192566799866  0.9703924836719132  1.0000
  Zn  Zn2       1.0  0.9076098120015407  0.018269520860826356  0.9703893293058531  1.0000
  C   C39       1.0  0.8319537219051208  0.00776704844813426  0.14088467007915267  1.0000
  C   C40       1.0  0.8309604554837301  0.028775519910217755  0.7998972345446027  1.0000
  C   C41       1.0  0.8314272147797092  0.18135314595420438  0.9666797498250894  1.0000
  C   C42       1.0  0.8314869109002685  0.8551883485826053  0.9741022045119616  1.0000
  O   O1        1.0  0.8888599605812081  0.02854591580906907  0.8346754366771774  1.0000
  O   O2        1.0  0.8896517884029511  0.007994165325214462  0.10610380510345596  1.0000
  O   O3        1.0  0.8892258508920334  0.148167094802252  0.9654320995340914  1.0000
  O   O4        1.0  0.88928584591599  0.8883729955675916  0.975347072255913  1.0000
  O   O5        1.0  0.7736266161670894  0.148168450963225  0.9654347407180206  1.0000
  O   O6        1.0  0.7740525534119245  0.007996595309721188  0.10610639657025578  1.0000
  O   O7        1.0  0.773260722379419  0.028548360456919233  0.8346769058215427  1.0000
  O   O8        1.0  0.7736866079153805  0.8883754309818737  0.9753486113870742  1.0000
