data_image0
_chemical_formula_structural       NC8NC6H8C7H8C8H10Zn2C4O8
_chemical_formula_sum              "N2 C33 H26 Zn2 O8"
_cell_length_a       17.457602349358154
_cell_length_b       9.274341958901593
_cell_length_c       9.275657083861812
_cell_angle_alpha    85.81657389755262
_cell_angle_beta     92.37146316173272
_cell_angle_gamma    91.07026823974832

_space_group_name_H-M_alt    "P 1"
_space_group_IT_number       1

loop_
  _space_group_symop_operation_xyz
  'x, y, z'

loop_
  _atom_site_type_symbol
  _atom_site_label
  _atom_site_symmetry_multiplicity
  _atom_site_fract_x
  _atom_site_fract_y
  _atom_site_fract_z
  _atom_site_occupancy
  N   N1        1.0  0.7202222412360315  0.6056700607391635  0.47430632229485115  1.0000
  C   C1        1.0  0.6594924004048247  0.5546192105482389  0.46258341405315395  1.0000
  C   C2        1.0  0.5839418096976262  0.49111834984216135  0.44801069639400093  1.0000
  C   C3        1.0  0.5247706266525155  0.5361199923204587  0.5310634569753567  1.0000
  C   C4        1.0  0.450641420086437  0.4749744897138568  0.5171699145209379  1.0000
  C   C5        1.0  0.38784222285153164  0.5224908957514266  0.6051260926873498  1.0000
  C   C6        1.0  0.313464957631059  0.5426935340739023  0.5432323513194817  1.0000
  C   C7        1.0  0.2542943903673917  0.587491543061292  0.6264051125295367  1.0000
  C   C8        1.0  0.1784865169483543  0.6083548225009914  0.562052513416749  1.0000
  N   N2        1.0  0.11754994320365811  0.6251218163016756  0.5103131990427785  1.0000
  C   C9        1.0  0.26900475169306737  0.6123596555050985  0.7720355373592235  1.0000
  C   C10       1.0  0.3425928304384835  0.5925910394356257  0.8343588604630906  1.0000
  C   C11       1.0  0.4017482836547597  0.5479954467662865  0.7516937377481183  1.0000
  C   C12       1.0  0.4369837545716287  0.3680673675678674  0.41863456117853337  1.0000
  C   C13       1.0  0.4961393777456064  0.3233773359643932  0.33602527978714597  1.0000
  C   C14       1.0  0.5694802665722308  0.38465061023809866  0.35052887308536224  1.0000
  H   H1        1.0  0.5362909190819856  0.6199748914482686  0.6049013593763368  1.0000
  H   H2        1.0  0.3017413791163851  0.5255155873120794  0.43005105421861334  1.0000
  H   H3        1.0  0.22364327845977594  0.646970785611084  0.8372784005532163  1.0000
  H   H4        1.0  0.3537946707616678  0.6114965001706083  0.9471241281117712  1.0000
  H   H5        1.0  0.4580920581336856  0.5316004366636745  0.8028684589768156  1.0000
  H   H6        1.0  0.380843610925527  0.3176710582280391  0.40687086651253157  1.0000
  H   H7        1.0  0.4851319384406446  0.24075557201148778  0.2608564507019264  1.0000
  H   H8        1.0  0.6148447054881173  0.3490765956940553  0.28585417178588224  1.0000
  C   C15       1.0  0.9213260307807396  0.1919409153846576  0.492777835061293  1.0000
  C   C16       1.0  0.9310015044433562  0.2750814846023344  0.36166348622406375  1.0000
  C   C17       1.0  0.9330430302987077  0.20955643169034416  0.2312566667673135  1.0000
  C   C18       1.0  0.9246167222877969  0.05950469602607988  0.2287520980314646  1.0000
  C   C19       1.0  0.917334450911389  0.974867932771988  0.3590166568198805  1.0000
  C   C20       1.0  0.9164534682244851  0.038840235695029916  0.4918548555904814  1.0000
  C   C21       1.0  0.9285074592724232  0.9889828741529486  0.08876728035518866  1.0000
  H   H9        1.0  0.8559819216568789  0.2686151703995612  0.8208407068091841  1.0000
  H   H10       1.0  0.9353580626605148  0.3918897727146875  0.35958049726658387  1.0000
  H   H11       1.0  0.9403888724165239  0.2762782628916993  0.13184176186922253  1.0000
  H   H12       1.0  0.9141016398406546  0.8581962743310494  0.35688332034133285  1.0000
  H   H13       1.0  0.8755006026023113  0.7404062521440247  0.7148884680760398  1.0000
  H   H14       1.0  0.9889085865756441  0.9622716234650944  0.07062748777458983  1.0000
  H   H15       1.0  0.9065684070533953  0.06226399809304947  0.9968179559070901  1.0000
  H   H16       1.0  0.8931095731327745  0.8881075253012638  0.09132554829884311  1.0000
  C   C22       1.0  0.9208551740335323  0.6133124053704588  0.06917579663759232  1.0000
  C   C23       1.0  0.9599373521599198  0.7251798521753294  0.13759541488055893  1.0000
  C   C24       1.0  0.9922143096046694  0.8428876647712951  0.056715851293167585  1.0000
  C   C25       1.0  0.9865526166258173  0.8477999517242769  0.9055609380012527  1.0000
  C   C26       1.0  0.9491226393403605  0.7366591941585151  0.8358380756416477  1.0000
  C   C27       1.0  0.9169243395250539  0.6174687469818108  0.9154568890744309  1.0000
  C   C28       1.0  0.034808200506360125  0.9606411406642092  0.13170998062381134  1.0000
  C   C29       1.0  0.11925750470673174  0.923616130938347  0.1572310031662552  1.0000
  H   H17       1.0  0.8877647339207753  0.381584532181227  0.3641348866515369  1.0000
  H   H18       1.0  0.9639167766055688  0.7227004911773842  0.25468258646722  1.0000
  H   H19       1.0  0.011892400620445949  0.937199797173768  0.841420959564593  1.0000
  H   H20       1.0  0.9471173710680509  0.742182170385723  0.718678837967289  1.0000
  H   H21       1.0  0.8273583352303816  0.44684536316006634  0.6396002691051565  1.0000
  H   H22       1.0  0.030007178487609698  0.06512052133409618  0.06537507745247531  1.0000
  H   H23       1.0  0.0092143143374408  0.9757241560853266  0.23725780615063585  1.0000
  H   H24       1.0  0.12530559088681414  0.8213012904684958  0.22658559967056258  1.0000
  H   H25       1.0  0.14631417206891673  0.9116655679390748  0.05251568079559712  1.0000
  H   H26       1.0  0.14959116181457555  0.011687233775107497  0.21249731635582947  1.0000
  Zn  Zn1       1.0  0.8348824169100463  0.6112795910354414  0.48470545312883  1.0000
  Zn  Zn2       1.0  0.0028897665057407997  0.6195005210755475  0.4999258782102258  1.0000
  C   C30       1.0  0.9176986938682515  0.610938414106944  0.7554977248062176  1.0000
  C   C31       1.0  0.9200753130576451  0.6198436079218066  0.22913391218438361  1.0000
  C   C32       1.0  0.917397225352823  0.8787298565577389  0.4862869224345612  1.0000
  C   C33       1.0  0.9203767338547826  0.35205043055196245  0.49834478807295396  1.0000
  O   O1        1.0  0.9835715343784556  0.6251490482785869  0.2885933958501675  1.0000
  O   O2        1.0  0.9817161716505449  0.6118713795534212  0.7075897779924907  1.0000
  O   O3        1.0  0.9814718655652784  0.8281163213196384  0.49020007086681894  1.0000
  O   O4        1.0  0.9838157835766734  0.4089041134919559  0.5059829897307098  1.0000
  O   O5        1.0  0.853956342506477  0.821875995815166  0.47864833640678084  1.0000
  O   O6        1.0  0.8542006389773972  0.6056327861641296  0.6960379648139734  1.0000
  O   O7        1.0  0.8560560100922119  0.6189103961330835  0.2770398503089847  1.0000
  O   O8        1.0  0.8563002588448417  0.4026654515629991  0.49442955223309126  1.0000
