data_image0
_chemical_formula_structural       NC8NC6H8C9H10C6OCH8Zn2C4O8
_chemical_formula_sum              "N2 C34 H26 O9 Zn2"
_cell_length_a       17.457602349358154
_cell_length_b       9.272676604525723
_cell_length_c       9.273891588657152
_cell_angle_alpha    86.3289676754197
_cell_angle_beta     92.54290593679646
_cell_angle_gamma    92.2282679722568

_space_group_name_H-M_alt    "P 1"
_space_group_IT_number       1

loop_
  _space_group_symop_operation_xyz
  'x, y, z'

loop_
  _atom_site_type_symbol
  _atom_site_label
  _atom_site_symmetry_multiplicity
  _atom_site_fract_x
  _atom_site_fract_y
  _atom_site_fract_z
  _atom_site_occupancy
  N   N1        1.0  0.7351415093205718  0.6002164505081996  0.4837127531897294  1.0000
  C   C1        1.0  0.673836896681189  0.5490999219977251  0.4716869684142364  1.0000
  C   C2        1.0  0.5975713770582275  0.48551740185667375  0.4567375108749712  1.0000
  C   C3        1.0  0.5390281078824803  0.5308655788640259  0.5400618558582452  1.0000
  C   C4        1.0  0.4642107215417934  0.46964199603893864  0.5258055562299155  1.0000
  C   C5        1.0  0.4020749643490925  0.5175253426259996  0.6140485119486183  1.0000
  C   C6        1.0  0.327814222213356  0.5374898873336325  0.552270423797363  1.0000
  C   C7        1.0  0.2692695542002464  0.5826348307853959  0.6357135718260285  1.0000
  C   C8        1.0  0.19358128914168615  0.6032505046050802  0.5714803803841011  1.0000
  N   N2        1.0  0.1327408037783404  0.6198184215266023  0.5198370278698701  1.0000
  C   C9        1.0  0.2844931982757275  0.6080903119447265  0.7815003800797309  1.0000
  C   C10       1.0  0.357970190600957  0.5885616573876007  0.8437106458069451  1.0000
  C   C11       1.0  0.4165027924503935  0.5436212211101255  0.7607763663285831  1.0000
  C   C12       1.0  0.44922604740090377  0.3623036667891739  0.4266312630709199  1.0000
  C   C13       1.0  0.5077578852046445  0.31726897780435515  0.34375226952586213  1.0000
  C   C14       1.0  0.5817893606182736  0.37862280165510276  0.3586194147558548  1.0000
  H   H1        1.0  0.5515835149451631  0.6150450090196478  0.6144007063231891  1.0000
  H   H2        1.0  0.3157151031529007  0.519856254418747  0.438980307403237  1.0000
  H   H3        1.0  0.23961693685093105  0.6429733877813896  0.8469522074210319  1.0000
  H   H4        1.0  0.3695656661178626  0.6079218008843195  0.9565949304377956  1.0000
  H   H5        1.0  0.47275358283428315  0.5274231864006098  0.8118572915275137  1.0000
  H   H6        1.0  0.3925181826810556  0.3118417627334038  0.41456856307781753  1.0000
  H   H7        1.0  0.4957265236187973  0.23431786256530684  0.2680897063373284  1.0000
  H   H8        1.0  0.6266590627948839  0.34277873540618753  0.29373008656253385  1.0000
  C   C15       1.0  0.931776408525113  0.18640544813560567  0.49973685039565496  1.0000
  C   C16       1.0  0.9007132050156731  0.2500647699304508  0.6162915453534652  1.0000
  C   C17       1.0  0.8766590215489843  0.16586584459331014  0.7370058776252444  1.0000
  C   C18       1.0  0.8828913135342328  0.015493855184069542  0.745230446994293  1.0000
  C   C19       1.0  0.9127007998639667  0.9503129018919984  0.6274512950717268  1.0000
  C   C20       1.0  0.9361131687563082  0.03361874990942515  0.5038260243537411  1.0000
  C   C21       1.0  0.8560480437607835  0.9318208768492854  0.8812563054203388  1.0000
  C   C22       1.0  0.8173154798136378  0.7836856227509823  0.8633855585926031  1.0000
  C   C23       1.0  0.8981465281162339  0.7956719711089084  0.9317195805604003  1.0000
  H   H9        1.0  0.9495112279468885  0.483944883190363  0.26514660481554597  1.0000
  H   H10       1.0  0.8966654459597077  0.3663864717887355  0.6157852160939732  1.0000
  H   H11       1.0  0.8536634313226533  0.2190071651607068  0.8254841546168898  1.0000
  H   H12       1.0  0.9163568922913258  0.8341050555364069  0.6291219769875085  1.0000
  H   H13       1.0  0.9570635215683964  0.9546072614426595  0.15278955885337364  1.0000
  H   H14       1.0  0.8340619291576136  0.9916901448670561  0.9700139856416348  1.0000
  H   H15       1.0  0.8140797053499873  0.7432705519975832  0.753205625231844  1.0000
  H   H16       1.0  0.7726063034146889  0.7534599277709891  0.942480298429968  1.0000
  H   H17       1.0  0.9439876748620901  0.7624091022249126  0.8631318791271971  1.0000
  H   H18       1.0  0.9006771805582632  0.7724457384336144  0.05077112594996659  1.0000
  C   C24       1.0  0.9351820597195416  0.6062536026660195  0.07860184751139254  1.0000
  C   C25       1.0  0.9983226691522352  0.670280637897243  0.15317799672071208  1.0000
  C   C26       1.0  0.057166642635345884  0.7448648725026292  0.07902730594595297  1.0000
  C   C27       1.0  0.053080963951312586  0.7557938459663197  0.9272640423817987  1.0000
  C   C28       1.0  0.991547699478528  0.6909728179683249  0.8514879226327627  1.0000
  C   C29       1.0  0.9327074740458636  0.6137705550519799  0.9249609830532499  1.0000
  O   O1        1.0  0.11820296529579172  0.8070125178916664  0.1600374293276794  1.0000
  C   C30       1.0  0.18176872408873923  0.8860452099512373  0.0990675070785616  1.0000
  H   H19       1.0  0.7522434419108951  0.5086570882903174  0.1726115841552902  1.0000
  H   H20       1.0  0.0012166090675864644  0.6653953845718452  0.2703529453770939  1.0000
  H   H21       1.0  0.0975577823837484  0.8130572790192868  0.8666231451573325  1.0000
  H   H22       1.0  0.9909667151770989  0.6983769440136938  0.7343863868997502  1.0000
  H   H23       1.0  0.8106795228081833  0.5424019014760589  0.6381462539322783  1.0000
  H   H24       1.0  0.16167439549506568  0.9826477553382125  0.03327200032868128  1.0000
  H   H25       1.0  0.21339137636017272  0.8160292989691198  0.031215693230451487  1.0000
  H   H26       1.0  0.22121759439990718  0.9224617836074427  0.18764560590801382  1.0000
  Zn  Zn1       1.0  0.8498800329864078  0.6058693613450614  0.4941457404126406  1.0000
  Zn  Zn2       1.0  0.018002170825622384  0.6141537882239787  0.5094157817662719  1.0000
  C   C31       1.0  0.9331441085783346  0.6066028950023825  0.7649531107391574  1.0000
  C   C32       1.0  0.9347399400255684  0.6134221664139641  0.2386087284141343  1.0000
  C   C33       1.0  0.9353062485828738  0.8734262150019542  0.4973101670707916  1.0000
  C   C34       1.0  0.9325777335564605  0.3465971111364448  0.5062517353362488  1.0000
  O   O2        1.0  0.998393003537162  0.6189656053977932  0.2981033700639082  1.0000
  O   O3        1.0  0.997091853247588  0.6073460524027694  0.7170476570676292  1.0000
  O   O4        1.0  0.9988369441897715  0.822809228671032  0.5009240155575811  1.0000
  O   O5        1.0  0.9966478555950186  0.403502435662238  0.5142268983629756  1.0000
  O   O6        1.0  0.8712342908452071  0.8165207110812374  0.4893346185974489  1.0000
  O   O7        1.0  0.869489208995788  0.6010592672653574  0.7054581916352605  1.0000
  O   O8        1.0  0.870790364144759  0.6126787546059749  0.28651217181162636  1.0000
  O   O9        1.0  0.869045215830771  0.3972155755121476  0.5026358081031863  1.0000
