data_image0
_chemical_formula_structural       NC9NC3NH7C7ONH7C9H10Zn2C4O8
_chemical_formula_sum              "N4 C32 H24 O9 Zn2"
_cell_length_a       16.053384444249904
_cell_length_b       10.297852080636378
_cell_length_c       9.272679976505533
_cell_angle_alpha    86.02025868142809
_cell_angle_beta     90.20084585415952
_cell_angle_gamma    89.15396345524235

_space_group_name_H-M_alt    "P 1"
_space_group_IT_number       1

loop_
  _space_group_symop_operation_xyz
  'x, y, z'

loop_
  _atom_site_type_symbol
  _atom_site_label
  _atom_site_symmetry_multiplicity
  _atom_site_fract_x
  _atom_site_fract_y
  _atom_site_fract_z
  _atom_site_occupancy
  N   N1        1.0  0.777770473375945  0.39279526523399255  0.40651280817995006  1.0000
  C   C1        1.0  0.7266927627024526  0.37138423878188037  0.3234271851840387  1.0000
  C   C2        1.0  0.6632172883025019  0.34478096504694977  0.22021458719120776  1.0000
  C   C3        1.0  0.6762652425354055  0.3316615114538206  0.07509254846135915  1.0000
  C   C4        1.0  0.599418374452861  0.30591432719516165  0.01708778625113494  1.0000
  C   C5        1.0  0.5427683604716431  0.3047578847393569  0.1299497574233914  1.0000
  C   C6        1.0  0.4520767289658062  0.28085074963777035  0.1185752346520752  1.0000
  C   C7        1.0  0.39658165887131247  0.3243179008662036  0.22281778197896807  1.0000
  C   C8        1.0  0.3109955252479173  0.3016434458027175  0.21192313786542402  1.0000
  C   C9        1.0  0.2547303524832639  0.3468746288783877  0.318798646949515  1.0000
  N   N2        1.0  0.2095097520345929  0.3832341097977217  0.40470981911935966  1.0000
  C   C10       1.0  0.2801785183661318  0.23538994435568705  0.09680116584501162  1.0000
  C   C11       1.0  0.3346659345619677  0.19204411181763575  0.9927935839800742  1.0000
  C   C12       1.0  0.4200444060748884  0.21454965765328107  0.0032479964066436393  1.0000
  N   N3        1.0  0.5824397411078653  0.3286212499750786  0.25378273554685554  1.0000
  H   H1        1.0  0.7347717642641447  0.33988767974518574  0.017795505166499075  1.0000
  H   H2        1.0  0.5867184870370573  0.29133392839921113  0.9047767858656716  1.0000
  H   H3        1.0  0.4192362099791337  0.37742057978332255  0.3113988943871752  1.0000
  H   H4        1.0  0.2141236049212875  0.21735297604294268  0.08744056650490362  1.0000
  H   H5        1.0  0.3107196350795561  0.14058162841103974  0.9039528765628834  1.0000
  H   H6        1.0  0.4608514544075442  0.1785165925922081  0.9219384164880022  1.0000
  H   H7        1.0  0.5566811602736657  0.3317269862448595  0.35675130390076637  1.0000
  C   C13       1.0  0.9937329311732472  0.006575567262271149  0.4056195198164356  1.0000
  C   C14       1.0  0.9817310240776977  0.015288085828792482  0.2550625356543288  1.0000
  C   C15       1.0  0.9749100070840507  0.9026301090228817  0.17884387138636848  1.0000
  C   C16       1.0  0.9815202174842736  0.7800401848623875  0.25501368079888115  1.0000
  C   C17       1.0  0.9935552680343882  0.7694437638877891  0.40561546832398654  1.0000
  C   C18       1.0  0.9993858740600824  0.8832299971127296  0.47996933393589636  1.0000
  C   C19       1.0  0.9624401396758794  0.9144282122714887  0.019805332694224683  1.0000
  O   O1        1.0  0.9844106341119429  0.016526587753732398  0.9479222058741515  1.0000
  N   N4        1.0  0.9249243242796604  0.8129105692666089  0.9455288024547238  1.0000
  H   H8        1.0  0.016717934956989037  0.19737513262848827  0.6900945561363054  1.0000
  H   H9        1.0  0.9769354508196547  0.11010037398157735  0.19696928320705798  1.0000
  H   H10       1.0  0.978933151449761  0.6924788522833891  0.19720286207852378  1.0000
  H   H11       1.0  0.00863381491231219  0.8757616476611086  0.5960054810134361  1.0000
  H   H12       1.0  0.017635038629149495  0.5421289751667493  0.6899545627782908  1.0000
  H   H13       1.0  0.920277928588745  0.8212691300770978  0.8329068566706754  1.0000
  H   H14       1.0  0.8966952739248002  0.7338008196048393  0.0010424635957000372  1.0000
  C   C20       1.0  0.991955817914588  0.3849798445024764  0.9822619178670674  1.0000
  C   C21       1.0  0.048587683790273006  0.3033783279437485  0.06229213117784149  1.0000
  C   C22       1.0  0.10931949392484785  0.23221180421674165  0.9934379254050123  1.0000
  C   C23       1.0  0.11547309397603756  0.24030512283080221  0.8425499251981274  1.0000
  C   C24       1.0  0.05784170276670397  0.32016589991251365  0.7611396203156362  1.0000
  C   C25       1.0  0.9953324006136871  0.39103950498339174  0.8289731735316122  1.0000
  C   C26       1.0  0.18397533489198148  0.16054246941877118  0.7761160892557892  1.0000
  C   C27       1.0  0.16415305944504865  0.1015374684620689  0.6340993690776084  1.0000
  C   C28       1.0  0.2227203252311872  0.21654567685029957  0.6360355927478344  1.0000
  H   H15       1.0  0.8665028085257438  0.4755804640732566  0.2557361784705492  1.0000
  H   H16       1.0  0.0472704184254884  0.2968554279374078  0.17937227477766915  1.0000
  H   H17       1.0  0.1524592818093995  0.17122864672237648  0.05889054002984273  1.0000
  H   H18       1.0  0.05970384880753387  0.3257398973093082  0.644352905366436  1.0000
  H   H19       1.0  0.8061758847208174  0.5174251887685166  0.7150596461236338  1.0000
  H   H20       1.0  0.2275284885051605  0.10114606555166451  0.8481208381610053  1.0000
  H   H21       1.0  0.10226972571791526  0.12507381830934164  0.5846760648282574  1.0000
  H   H22       1.0  0.19653220624813073  0.00730971973386519  0.6196707280917715  1.0000
  H   H23       1.0  0.19645345490181532  0.3098828280198287  0.5876715751572763  1.0000
  H   H24       1.0  0.2893392072717629  0.18952646273293722  0.6227347200735651  1.0000
  Zn  Zn1       1.0  0.9023611348224219  0.39003271767037556  0.4060008222616058  1.0000
  Zn  Zn2       1.0  0.08491911658100904  0.3859861593394786  0.405233587913465  1.0000
  C   C29       1.0  0.994693508991271  0.3847194939835221  0.66892660858145  1.0000
  C   C30       1.0  0.9925887361223116  0.3913009787718129  0.14230793470668132  1.0000
  C   C31       1.0  0.9935616772558586  0.6252044152246408  0.3998713632876234  1.0000
  C   C32       1.0  0.9937205062333394  0.15081449887188603  0.41136325713192834  1.0000
  O   O2        1.0  0.062080953242565025  0.39188109459515585  0.19572967858954324  1.0000
  O   O3        1.0  0.06375857449479994  0.38106715114518147  0.6149221365815882  1.0000
  O   O4        1.0  0.06284367810766556  0.5752617978238024  0.39765812631429553  1.0000
  O   O5        1.0  0.06299578690179164  0.197686457815681  0.41299358102349226  1.0000
  O   O6        1.0  0.924284402203529  0.5783324205764249  0.3982408294058153  1.0000
  O   O7        1.0  0.9251992979169383  0.3841393339388639  0.6155047627959236  1.0000
  O   O8        1.0  0.9235216698184225  0.3949532197186257  0.19631057150129472  1.0000
  O   O9        1.0  0.9244365039074471  0.20075857442225642  0.4135745820228238  1.0000
