data_image0
_chemical_formula_structural       NC9NC5H8C9H10C6NCOCH9Zn2C4O8
_chemical_formula_sum              "N3 C35 H27 O9 Zn2"
_cell_length_a       17.807436237873137
_cell_length_b       9.272676604525724
_cell_length_c       10.300272075376752
_cell_angle_alpha    85.79057383563607
_cell_angle_beta     89.39000598542044
_cell_angle_gamma    88.94495835625186

_space_group_name_H-M_alt    "P 1"
_space_group_IT_number       1

loop_
  _space_group_symop_operation_xyz
  'x, y, z'

loop_
  _atom_site_type_symbol
  _atom_site_label
  _atom_site_symmetry_multiplicity
  _atom_site_fract_x
  _atom_site_fract_y
  _atom_site_fract_z
  _atom_site_occupancy
  N   N1        1.0  0.7151817772795531  0.5411745816843678  0.5631331626086211  1.0000
  C   C1        1.0  0.6543981000836191  0.5021131351102639  0.5519590264957708  1.0000
  C   C2        1.0  0.5787898863856955  0.45352499725025197  0.5380596146792744  1.0000
  C   C3        1.0  0.5603019536320751  0.3742847936930018  0.4327554111843923  1.0000
  C   C4        1.0  0.48688966511133125  0.3269857111626737  0.4191768781595442  1.0000
  C   C5        1.0  0.4309144848852272  0.358507731668819  0.5108684817420321  1.0000
  C   C6        1.0  0.35289678617691  0.30836853087499133  0.4965205803000849  1.0000
  C   C7        1.0  0.29117613596729547  0.3991197242313933  0.5228084809502234  1.0000
  C   C8        1.0  0.21762040940410132  0.3515952343607509  0.5092427590406341  1.0000
  C   C9        1.0  0.1548646800348783  0.44533408046656886  0.5359060717732917  1.0000
  N   N2        1.0  0.1044220293286197  0.5206936270815095  0.5573426237359267  1.0000
  C   C10       1.0  0.2052003491792087  0.21303316551089702  0.46936268311089124  1.0000
  C   C11       1.0  0.2660635524299278  0.12226659735045177  0.443066333801251  1.0000
  C   C12       1.0  0.33949764931012044  0.16935316793535393  0.45642783643802565  1.0000
  C   C13       1.0  0.4500965765089324  0.43829666874226586  0.6163940225157325  1.0000
  C   C14       1.0  0.5235606769116986  0.48538444635406214  0.6298160960768684  1.0000
  H   H1        1.0  0.602572754686477  0.3493508808718777  0.3609494047220858  1.0000
  H   H2        1.0  0.473679128290842  0.26742288210225307  0.33603005785748574  1.0000
  H   H3        1.0  0.3002168996581777  0.5073087291723106  0.5521016361467275  1.0000
  H   H4        1.0  0.1485456067686844  0.17525230937717515  0.4586225084084483  1.0000
  H   H5        1.0  0.25632904261427153  0.01498849096360378  0.4125763297038089  1.0000
  H   H6        1.0  0.3857719922702233  0.09637400267367657  0.4370987263111388  1.0000
  H   H7        1.0  0.4085396236890224  0.4626316530796974  0.6894921644415906  1.0000
  H   H8        1.0  0.5373063934876467  0.5463027102178659  0.711926560133257  1.0000
  C   C15       1.0  0.9076774254043991  0.1075579109441902  0.5586106016293311  1.0000
  C   C16       1.0  0.8776069464944823  0.17321243081652796  0.6666070253509258  1.0000
  C   C17       1.0  0.8544081547670116  0.09026857499505336  0.7776750068137039  1.0000
  C   C18       1.0  0.8605312102308171  0.9391953947579663  0.7844834576993357  1.0000
  C   C19       1.0  0.889371170056863  0.8721562047124584  0.6755048238209016  1.0000
  C   C20       1.0  0.9119335241353097  0.9542988401520411  0.5618763231313708  1.0000
  C   C21       1.0  0.8346462556055566  0.8569104969738442  0.9096141550306197  1.0000
  C   C22       1.0  0.7966871630032133  0.7128165715117074  0.8972491531933614  1.0000
  C   C23       1.0  0.8759923681903351  0.7160735989011688  0.9510165116160902  1.0000
  H   H9        1.0  0.9243673374861388  0.40555786713439096  0.3455636444501975  1.0000
  H   H10       1.0  0.8736438924414929  0.2899435151741892  0.6665411443740459  1.0000
  H   H11       1.0  0.8321537071174526  0.14486601714071565  0.8596001880735609  1.0000
  H   H12       1.0  0.8929542059320453  0.7555670383986491  0.6766574059728048  1.0000
  H   H13       1.0  0.9314392162355937  0.8765349426567093  0.2436155635088242  1.0000
  H   H14       1.0  0.8133805945857732  0.9181323325240851  0.9916937170371305  1.0000
  H   H15       1.0  0.7932067630595461  0.6737737127350425  0.7983025022305246  1.0000
  H   H16       1.0  0.7531545457546133  0.686306535312906  0.9728144053209593  1.0000
  H   H17       1.0  0.920662760072123  0.6788819171100436  0.8848076765791036  1.0000
  H   H18       1.0  0.878807894749208  0.6914611802700925  0.05802338180780598  1.0000
  C   C24       1.0  0.9098123592171716  0.5310744720073985  0.1788911967486666  1.0000
  C   C25       1.0  0.8331166948753388  0.5692245701001439  0.17672717696073992  1.0000
  C   C26       1.0  0.7947060722076308  0.5903842640003019  0.0582262745731541  1.0000
  C   C27       1.0  0.8331226342119532  0.5688954670973201  0.9415918373502752  1.0000
  C   C28       1.0  0.909798587360568  0.53078224481161  0.9415957442390325  1.0000
  C   C29       1.0  0.9478051759731286  0.5126069378600946  0.06075700912114378  1.0000
  N   N3        1.0  0.7159079709587849  0.6272346549626657  0.054545394711264406  1.0000
  C   C30       1.0  0.6790750828960284  0.7189453337072504  0.1428981222821777  1.0000
  O   O1        1.0  0.7167429553314004  0.7940947883137421  0.21490371174806344  1.0000
  C   C31       1.0  0.5954047193950955  0.7339547478979518  0.14307209680782118  1.0000
  H   H19       1.0  0.9387148919400091  0.5145072633772412  0.5072793019670816  1.0000
  H   H20       1.0  0.8029262288864718  0.5796687839029537  0.2673542492309049  1.0000
  H   H21       1.0  0.8028969512427613  0.583297487050696  0.850722591254168  1.0000
  H   H22       1.0  0.006962973587488982  0.4832217192746047  0.06161453518656713  1.0000
  H   H23       1.0  0.9385932159722377  0.5142425090945388  0.6143324415818725  1.0000
  H   H24       1.0  0.684347038784027  0.592931372944506  0.9779167636090825  1.0000
  H   H25       1.0  0.5699235123172934  0.6275233233343138  0.13065179374609537  1.0000
  H   H26       1.0  0.5750194238167985  0.7735478869511376  0.2365718528404288  1.0000
  H   H27       1.0  0.5777465850690282  0.8119571164060031  0.06177527168633846  1.0000
  Zn  Zn1       1.0  0.8275080853033816  0.5352603707407326  0.5614696337997769  1.0000
  Zn  Zn2       1.0  0.9920956438429448  0.526596081713288  0.5590167833644955  1.0000
  C   C32       1.0  0.9097706260461715  0.5250940610790753  0.7974061010547933  1.0000
  C   C33       1.0  0.90983490953248  0.5367641158229297  0.32308042380124946  1.0000
  C   C34       1.0  0.9111252377945653  0.7942489793401473  0.5560841320466003  1.0000
  C   C35       1.0  0.9084802329140094  0.26760746832475313  0.5644024562014209  1.0000
  O   O2        1.0  0.972302566719569  0.5353792699187376  0.37054077736937896  1.0000
  O   O3        1.0  0.9722211120335835  0.5199018245954738  0.7480837127368805  1.0000
  O   O4        1.0  0.9733141361350902  0.7372478688270547  0.5532145336999026  1.0000
  O   O5        1.0  0.9712094865090792  0.31803323899451574  0.5654098599127111  1.0000
  O   O6        1.0  0.8483941864715995  0.7438232164177738  0.5550765580817738  1.0000
  O   O7        1.0  0.8473011710745213  0.5264789043815663  0.7499456745569866  1.0000
  O   O8        1.0  0.847382625586167  0.5419563000594871  0.3724011776624818  1.0000
  O   O9        1.0  0.8462895453190122  0.3246102587861748  0.5672703575296729  1.0000
