data_image0
_chemical_formula_structural       NC8NC6H8C6NH7C6NCOH7Zn2C4O8
_chemical_formula_sum              "N4 C31 H22 O9 Zn2"
_cell_length_a       17.457602349358154
_cell_length_b       9.274771166103582
_cell_length_c       10.29962270195845
_cell_angle_alpha    85.47454724786482
_cell_angle_beta     92.8939802036364
_cell_angle_gamma    92.29117059398062

_space_group_name_H-M_alt    "P 1"
_space_group_IT_number       1

loop_
  _space_group_symop_operation_xyz
  'x, y, z'

loop_
  _atom_site_type_symbol
  _atom_site_label
  _atom_site_symmetry_multiplicity
  _atom_site_fract_x
  _atom_site_fract_y
  _atom_site_fract_z
  _atom_site_occupancy
  N   N1        1.0  0.7311341730023926  0.613608181273708  0.6245843309479964  1.0000
  C   C1        1.0  0.6697704775445035  0.5625804101591163  0.614030190437535  1.0000
  C   C2        1.0  0.5934314945097711  0.4991082152620312  0.6009103738115111  1.0000
  C   C3        1.0  0.5351654660569666  0.5437569355189763  0.6757531739177371  1.0000
  C   C4        1.0  0.46027777048405644  0.48263840135578606  0.6632449529037027  1.0000
  C   C5        1.0  0.3984355588149042  0.5297809637087001  0.7425064878241161  1.0000
  C   C6        1.0  0.3239921927398734  0.5502787550690249  0.6867191489369304  1.0000
  C   C7        1.0  0.2657250461194359  0.5947231712155834  0.7616701470147409  1.0000
  C   C8        1.0  0.1898468386490738  0.6158932443564216  0.7036665714724313  1.0000
  N   N2        1.0  0.1288536369681914  0.6329068952545235  0.6570318563137516  1.0000
  C   C9        1.0  0.28141070332470575  0.6189401218358264  0.8929166684829917  1.0000
  C   C10       1.0  0.35507184341364934  0.5988746476533262  0.9490910792295899  1.0000
  C   C11       1.0  0.413328586009407  0.5546304472278782  0.8745975545285675  1.0000
  C   C12       1.0  0.4449402870320268  0.37611798277898334  0.5744619403842512  1.0000
  C   C13       1.0  0.5031963963324243  0.33177903154360333  0.5000187646644758  1.0000
  C   C14       1.0  0.5773001268996465  0.3930226237496452  0.5130767766150357  1.0000
  H   H1        1.0  0.5479869231896629  0.6273242957807064  0.7422822849254394  1.0000
  H   H2        1.0  0.3115349647388065  0.5336081647901976  0.5847162804413286  1.0000
  H   H3        1.0  0.23675190048408745  0.653273567816472  0.9517102858718556  1.0000
  H   H4        1.0  0.36702491075781796  0.617275687889439  0.0507186098789798  1.0000
  H   H5        1.0  0.469730510593316  0.5379915846737462  0.9207233372909213  1.0000
  H   H6        1.0  0.38817350534556416  0.32574533055457544  0.5638708949545469  1.0000
  H   H7        1.0  0.49089541412318843  0.24945163099035206  0.43228985801844844  1.0000
  H   H8        1.0  0.6219536999252561  0.3577231189252177  0.45479543930209715  1.0000
  C   C15       1.0  0.927641607371798  0.19954709124509531  0.6413240328175704  1.0000
  C   C16       1.0  0.9099595790945346  0.28195502688697927  0.5237486534434829  1.0000
  C   C17       1.0  0.8994426383987616  0.21635222783106367  0.4060210178762329  1.0000
  C   C18       1.0  0.9066477952610085  0.06696565227783145  0.4050255331025947  1.0000
  C   C19       1.0  0.9229104012296988  0.9831688251225683  0.5208897851379058  1.0000
  C   C20       1.0  0.9323534881606138  0.04695724843612692  0.6403040252399919  1.0000
  N   N3        1.0  0.8822318693779929  0.30188205787149247  0.2872077188226525  1.0000
  H   H9        1.0  0.014064662799448291  0.28350574844405374  0.9325874807123187  1.0000
  H   H10       1.0  0.9060899910044137  0.39835978558860896  0.5229341099382776  1.0000
  H   H11       1.0  0.8989192930237077  0.015070258628758996  0.3144756282365875  1.0000
  H   H12       1.0  0.9262917619714904  0.8671675133004675  0.5174463847690738  1.0000
  H   H13       1.0  0.9874527945748531  0.7526358436702554  0.838164520117936  1.0000
  H   H14       1.0  0.8769443431178517  0.4136993749881766  0.28673416172092314  1.0000
  H   H15       1.0  0.8745760275651109  0.254008185223638  0.1987994342181909  1.0000
  C   C21       1.0  0.9299237332746881  0.6231079491573419  0.2594514414540616  1.0000
  C   C22       1.0  0.8495727455441561  0.6303369784470632  0.2507841043652177  1.0000
  C   C23       1.0  0.8092462306592008  0.6363483957578279  0.12946363609880152  1.0000
  C   C24       1.0  0.8497441531464163  0.6306544705915078  0.015625383398794265  1.0000
  C   C25       1.0  0.9300713495910168  0.6233963475401827  0.022176544206737425  1.0000
  C   C26       1.0  0.9697290619843028  0.6202443109533509  0.14455697082869068  1.0000
  N   N4        1.0  0.7269110234334527  0.6415007532881281  0.124613875459318  1.0000
  C   C27       1.0  0.682326813780178  0.7180694701061631  0.022772475800736595  1.0000
  O   O1        1.0  0.7137049116788458  0.8029740009576163  0.9380842450855178  1.0000
  H   H16       1.0  0.08142269420884363  0.6079244174304568  0.4831567440300552  1.0000
  H   H17       1.0  0.817906556625184  0.6325539841637957  0.33835009071115757  1.0000
  H   H18       1.0  0.8185952624958611  0.6288707300629234  0.9222323586362475  1.0000
  H   H19       1.0  0.0316718965590923  0.614690241424859  0.15036118041488009  1.0000
  H   H20       1.0  0.9608155387822362  0.6184183414120392  0.6973927707744001  1.0000
  H   H21       1.0  0.6975214687452578  0.5952243125410888  0.2043878270795252  1.0000
  H   H22       1.0  0.6203865970686739  0.706067335502595  0.020628896758859035  1.0000
  Zn  Zn1       1.0  0.8459073990582147  0.6191735067172769  0.6339554888648677  1.0000
  Zn  Zn2       1.0  0.014080332941670545  0.6273297438314097  0.6476713449874305  1.0000
  C   C28       1.0  0.9300097734471844  0.6175936655250431  0.8780119824644176  1.0000
  C   C29       1.0  0.9299798051434051  0.6289114946859058  0.4036151264375227  1.0000
  C   C30       1.0  0.9314578812818666  0.8867765107324355  0.6353213973593456  1.0000
  C   C31       1.0  0.9285316302974445  0.3597269131855225  0.6463057781864852  1.0000
  O   O2        1.0  0.993819340341936  0.6339481722761371  0.4572028795643199  1.0000
  O   O3        1.0  0.9938095976846482  0.6187462945438779  0.8348338742417543  1.0000
  O   O4        1.0  0.9949781030020616  0.8361148051157136  0.6388594377191541  1.0000
  O   O5        1.0  0.9926507776770381  0.41657966920598594  0.6531772140211543  1.0000
  O   O6        1.0  0.8673368969336857  0.829923578560946  0.6284496151437626  1.0000
  O   O7        1.0  0.8661684012383892  0.6125568015003464  0.8244239803350912  1.0000
  O   O8        1.0  0.8661781433649546  0.6277586283641576  0.44679142434761965  1.0000
  O   O9        1.0  0.8650095806583799  0.4103901150105671  0.6427658561828388  1.0000
