data_image0
_chemical_formula_structural       NC9NC5H8C7F3H5C8NH7Zn2C4O8
_chemical_formula_sum              "N3 C33 H20 F3 Zn2 O8"
_cell_length_a       17.807436237873137
_cell_length_b       9.272718291674593
_cell_length_c       9.274266800404106
_cell_angle_alpha    86.41389872873008
_cell_angle_beta     88.95510806583813
_cell_angle_gamma    87.96869977406762

_space_group_name_H-M_alt    "P 1"
_space_group_IT_number       1

loop_
  _space_group_symop_operation_xyz
  'x, y, z'

loop_
  _atom_site_type_symbol
  _atom_site_label
  _atom_site_symmetry_multiplicity
  _atom_site_fract_x
  _atom_site_fract_y
  _atom_site_fract_z
  _atom_site_occupancy
  N   N1        1.0  0.7079945034169696  0.5287752193814605  0.4099563936486377  1.0000
  C   C1        1.0  0.6476095180930536  0.48960492265470035  0.39742159195201693  1.0000
  C   C2        1.0  0.5724972332551985  0.44088138704038826  0.3818296601150888  1.0000
  C   C3        1.0  0.5551940586181896  0.36068569252774574  0.2646615605569904  1.0000
  C   C4        1.0  0.4822647596635852  0.31325437873765005  0.24943013621326982  1.0000
  C   C5        1.0  0.42559169808650826  0.3455992540690515  0.35132760034778343  1.0000
  C   C6        1.0  0.3480857813727234  0.2953202907373598  0.33523262217591865  1.0000
  C   C7        1.0  0.2854373648122652  0.3863272830471038  0.3647177836420148  1.0000
  C   C8        1.0  0.2123665768428961  0.3386706209549719  0.3494998335112376  1.0000
  C   C9        1.0  0.1486547672415032  0.43266933073449637  0.3794116819380029  1.0000
  N   N2        1.0  0.0974434892040962  0.5082377994836687  0.4034599522832024  1.0000
  C   C10       1.0  0.2013618922602833  0.19972027604745657  0.3047664036446893  1.0000
  C   C11       1.0  0.2631530372175539  0.10869783007909972  0.2752718117341364  1.0000
  C   C12       1.0  0.3361070244316291  0.15591465069731836  0.29026159106081206  1.0000
  C   C13       1.0  0.4435831379529273  0.4263457834430442  0.4687432423730058  1.0000
  C   C14       1.0  0.5165668423612694  0.47356434988700413  0.48380026943820154  1.0000
  H   H1        1.0  0.5980135986548809  0.3351073209356479  0.1848622634089785  1.0000
  H   H2        1.0  0.46996293912841  0.2529378376798177  0.15692571137415046  1.0000
  H   H3        1.0  0.29338140064206986  0.49480304907031214  0.3975971590337752  1.0000
  H   H4        1.0  0.1450924633182775  0.16183473955513938  0.2927176217290177  1.0000
  H   H5        1.0  0.2545125887614925  0.001122543730065703  0.24106676008842887  1.0000
  H   H6        1.0  0.3831192085485173  0.0827458788163271  0.26856083097560257  1.0000
  H   H7        1.0  0.4014769009478306  0.45133656850150294  0.5499750351867734  1.0000
  H   H8        1.0  0.529396487239726  0.5352274419159342  0.5751586670238322  1.0000
  C   C15       1.0  0.9043722035933932  0.09501280887104932  0.40349621025577914  1.0000
  C   C16       1.0  0.8589752325478781  0.17797313667498127  0.30463019006792513  1.0000
  C   C17       1.0  0.8082143194452455  0.11245722270196155  0.21722798583195924  1.0000
  C   C18       1.0  0.8048540587379885  0.9614088847417898  0.2257118866646248  1.0000
  C   C19       1.0  0.8503200304959245  0.8774624853732285  0.32145737955009346  1.0000
  C   C20       1.0  0.9010729444334301  0.9419888587367687  0.40993249322701897  1.0000
  C   C21       1.0  0.7614881920149229  0.20301627120003227  0.10921315770347982  1.0000
  F   F1        1.0  0.7419634236862301  0.33585759387776437  0.16192955215643962  1.0000
  F   F2        1.0  0.6960154524082859  0.13484289575389363  0.0801874657426773  1.0000
  F   F3        1.0  0.8025454049257674  0.22468737012195386  0.9822542006662934  1.0000
  H   H9        1.0  0.9923191040254058  0.17139864821101103  0.7131353686300508  1.0000
  H   H10       1.0  0.8620023581485101  0.2947320723109377  0.29787028428380813  1.0000
  H   H11       1.0  0.7675778901774198  0.9077627280425471  0.1570124863187696  1.0000
  H   H12       1.0  0.847245009561055  0.7608700846571972  0.3234482070094621  1.0000
  H   H13       1.0  0.06167937217967778  0.818905361218131  0.5807571351281648  1.0000
  C   C22       1.0  0.9044632144276472  0.5152565529365529  0.9833508110151168  1.0000
  C   C23       1.0  0.8611962631944364  0.4143220981691649  0.06444422787152337  1.0000
  C   C24       1.0  0.8133383490093153  0.32484325290314064  0.9966522241067977  1.0000
  C   C25       1.0  0.8071457451181347  0.3349697364894304  0.8461315089251875  1.0000
  C   C26       1.0  0.851457755987772  0.43240201862762934  0.7636884324597095  1.0000
  C   C27       1.0  0.9009819250022091  0.5217451185548799  0.8300778093543699  1.0000
  C   C28       1.0  0.7563540284795329  0.23694339675936457  0.7731380905818716  1.0000
  C   C29       1.0  0.7975605716744326  0.10295390096629674  0.7402423144206127  1.0000
  N   N3        1.0  0.8300875639068667  0.9972049657175  0.7142770481159961  1.0000
  H   H14       1.0  0.9860078899882532  0.8282856768665905  0.06381713033095493  1.0000
  H   H15       1.0  0.8631439320049459  0.406752037123961  0.1813694905650935  1.0000
  H   H16       1.0  0.7804799532125485  0.24841051048451687  0.06185528151921704  1.0000
  H   H17       1.0  0.8485184492999284  0.43584684525019224  0.6468712580690958  1.0000
  H   H18       1.0  0.9586246748737308  0.7295527099257588  0.5343651564814464  1.0000
  H   H19       1.0  0.7347138149262694  0.2908787727983404  0.6711278721202438  1.0000
  H   H20       1.0  0.7071836829806968  0.20991149759207642  0.8438966246866993  1.0000
  Zn  Zn1       1.0  0.8203810476699132  0.5228447794762463  0.40808996960629834  1.0000
  Zn  Zn2       1.0  0.9850569238154812  0.514156574728996  0.4053381392663862  1.0000
  C   C30       1.0  0.9016606825773898  0.5147735859407963  0.6699846755978229  1.0000
  C   C31       1.0  0.9037790794936806  0.5222294940895522  0.14344355855483393  1.0000
  C   C32       1.0  0.9017163377441283  0.7818485400102759  0.4029708875538852  1.0000
  C   C33       1.0  0.9037233745677834  0.2551528109256984  0.41045741123412444  1.0000
  O   O1        1.0  0.9660431388495524  0.5212662568573904  0.19612779401171654  1.0000
  O   O2        1.0  0.9643818088197769  0.5091415856817111  0.6152114413063812  1.0000
  O   O3        1.0  0.9644259024632863  0.7248080446510847  0.3995959437668906  1.0000
  O   O4        1.0  0.9659989894175705  0.30559981034073913  0.4117431844714936  1.0000
  O   O5        1.0  0.8394389258720546  0.731401546830873  0.40168492533268446  1.0000
  O   O6        1.0  0.8393948257919339  0.5157368199222434  0.617300359168315  1.0000
  O   O7        1.0  0.8410561631939508  0.5278614275577598  0.1982149781559294  1.0000
  O   O8        1.0  0.8410120133546718  0.31219497155475606  0.4138304766269129  1.0000
