data_image0
_chemical_formula_structural       NC6NC2H4C10H8C6H4Zn2C4O8
_chemical_formula_sum              "N2 C28 H16 Zn2 O8"
_cell_length_a       14.927258858638513
_cell_length_b       15.491143632010285
_cell_length_c       10.681121600428288
_cell_angle_alpha    82.99762469271862
_cell_angle_beta     89.99986493836577
_cell_angle_gamma    89.41449083176803

_space_group_name_H-M_alt    "P 1"
_space_group_IT_number       1

loop_
  _space_group_symop_operation_xyz
  'x, y, z'

loop_
  _atom_site_type_symbol
  _atom_site_label
  _atom_site_symmetry_multiplicity
  _atom_site_fract_x
  _atom_site_fract_y
  _atom_site_fract_z
  _atom_site_occupancy
  N   N1        1.0  0.8335039969541643  0.9492744539231026  0.5569206866529746  1.0000
  C   C1        1.0  0.755977505968331  0.9492744367751943  0.556920696966843  1.0000
  C   C2        1.0  0.6595449976899596  0.9492745060040987  0.5569206491500318  1.0000
  C   C3        1.0  0.6126439201774434  0.93502504441846  0.44779394586462956  1.0000
  C   C4        1.0  0.5189326086705791  0.9350250598378358  0.4477938289250982  1.0000
  C   C5        1.0  0.47172893483074274  0.9492743992118744  0.5569206722794282  1.0000
  C   C6        1.0  0.37529635956081636  0.9492744684425617  0.5569206244573546  1.0000
  N   N2        1.0  0.2977698685749826  0.9492744512946538  0.5569206347712232  1.0000
  C   C7        1.0  0.5186299453517037  0.9635238607992962  0.6660473755595677  1.0000
  C   C8        1.0  0.6123412568585681  0.9635238453799205  0.6660474924990993  1.0000
  H   H1        1.0  0.648457834661783  0.9239381599078456  0.36288710668821933  1.0000
  H   H2        1.0  0.48335417789069196  0.9239382787221255  0.36288709467306557  1.0000
  H   H3        1.0  0.4828160979208538  0.9746107391041527  0.7509543090344171  1.0000
  H   H4        1.0  0.6479196870152694  0.9746106850366705  0.7509543185269417  1.0000
  C   C9        1.0  0.06833467694489005  0.6945588340044225  0.5734975524609152  1.0000
  C   C10       1.0  0.05639287045018149  0.6363459558350275  0.4919803644523806  1.0000
  C   C11       1.0  0.06144592781395611  0.5407876717032086  0.5276936137941715  1.0000
  C   C12       1.0  0.10730715700340343  0.5023827893621553  0.6358833792097058  1.0000
  C   C13       1.0  0.11076914680015129  0.411952951861883  0.6649521045083704  1.0000
  C   C14       1.0  0.06983696573754375  0.3577546108944929  0.5861588986441386  1.0000
  C   C15       1.0  0.023975803539651567  0.3961594932337635  0.4779691332338669  1.0000
  C   C16       1.0  0.02051367975979402  0.4865893307376016  0.448900407924677  1.0000
  C   C17       1.0  0.07489009009287306  0.2621963267608918  0.6218721479911922  1.0000
  C   C18       1.0  0.06294781540433614  0.2039833776549863  0.5403550567563649  1.0000
  H   H5        1.0  0.08139725430282256  0.6735650608624079  0.6721016678933139  1.0000
  H   H6        1.0  0.03933638915466144  0.6594863274364029  0.3949316162967693  1.0000
  H   H7        1.0  0.14199333454496577  0.5413950611771025  0.697401278118567  1.0000
  H   H8        1.0  0.1465531735506274  0.3841466426966579  0.7487864867616045  1.0000
  H   H9        1.0  0.9892894913298591  0.35714728616739705  0.4164512317971141  1.0000
  H   H10       1.0  0.9847297863073073  0.5143957046442762  0.365066023164601  1.0000
  H   H11       1.0  0.0919467723011234  0.23905596135814233  0.7189208018694134  1.0000
  H   H12       1.0  0.04988483684412959  0.22497707985870813  0.44175103810293503  1.0000
  C   C19       1.0  0.06564128217651824  0.9492710972118596  0.1891810753799803  1.0000
  C   C20       1.0  0.0020311097717453683  0.9010301653230713  0.13089708014873946  1.0000
  C   C21       1.0  0.0020310532520961856  0.9010302209407509  1.4936577435119733e-05  1.0000
  C   C22       1.0  0.06564121130234614  0.9492711397311233  0.9246715082900807  1.0000
  C   C23       1.0  0.12919888340774957  0.997472094334343  0.9829575240452724  1.0000
  C   C24       1.0  0.1291988720884607  0.9974720808842823  0.11384982358336247  1.0000
  H   H13       1.0  0.9521704537205149  0.863216642940137  0.18639401391499466  1.0000
  H   H14       1.0  0.952170434579291  0.8632166837695634  0.9578899820331536  1.0000
  H   H15       1.0  0.1790660501559472  0.035290599565998455  0.9275046014690201  1.0000
  H   H16       1.0  0.1790660053417291  0.03529056915919183  0.15592897093165425  1.0000
  Zn  Zn1       1.0  0.9674811313657604  0.9492721289304245  0.556928058939427  1.0000
  Zn  Zn2       1.0  0.16379282017393212  0.949269671479354  0.5569239974207117  1.0000
  C   C25       1.0  0.06567578962285593  0.94581562537476  0.7858728944609248  1.0000
  C   C26       1.0  0.0656002940614793  0.9527272694392435  0.32797921356555015  1.0000
  C   C27       1.0  0.06396146223061795  0.10769129970639421  0.541629392064916  1.0000
  C   C28       1.0  0.06731456548602326  0.7908505529851786  0.5722228505273428  1.0000
  O   O1        1.0  0.14008584090615103  0.9538824756829564  0.3745598415432278  1.0000
  O   O2        1.0  0.1401862791597009  0.944657899627648  0.7392888659649113  1.0000
  O   O3        1.0  0.1388009338240722  0.07537455386036855  0.5420604510611609  1.0000
  O   O4        1.0  0.14147111918829078  0.8231658276559934  0.5717881621485392  1.0000
  O   O5        1.0  0.989802765359847  0.07537597275556765  0.5420638942063374  1.0000
  O   O6        1.0  0.9911880996716156  0.9446603606470607  0.7392921745390422  1.0000
  O   O7        1.0  0.9910876617973517  0.9538849064759429  0.3745616464612649  1.0000
  O   O8        1.0  0.9924729401414264  0.8231682522450056  0.5717900613597533  1.0000
