data_image0
_chemical_formula_structural       NC12NC2H8C7OClH5C7ONC2H10Zn2C4O8
_chemical_formula_sum              "N3 C34 H23 O10 Cl1 Zn2"
_cell_length_a       19.240039667572717
_cell_length_b       10.298511985553574
_cell_length_c       10.299292011521983
_cell_angle_alpha    85.57409494147583
_cell_angle_beta     89.98543550948615
_cell_angle_gamma    90.00036199947623

_space_group_name_H-M_alt    "P 1"
_space_group_IT_number       1

loop_
  _space_group_symop_operation_xyz
  'x, y, z'

loop_
  _atom_site_type_symbol
  _atom_site_label
  _atom_site_symmetry_multiplicity
  _atom_site_fract_x
  _atom_site_fract_y
  _atom_site_fract_z
  _atom_site_occupancy
  N   N1        1.0  0.6546768561600501  0.42108136374826444  0.5674637953687107  1.0000
  C   C1        1.0  0.5945284873542024  0.4210814477188123  0.567463713432568  1.0000
  C   C2        1.0  0.5197104502321188  0.4210815649838685  0.567463576128878  1.0000
  C   C3        1.0  0.4832224473492181  0.3566345450605298  0.6708751523379535  1.0000
  C   C4        1.0  0.41055168709829987  0.35652367251843037  0.6709616933239368  1.0000
  C   C5        1.0  0.3733782153260806  0.42108165750310467  0.5674633484473784  1.0000
  C   C6        1.0  0.4105804219152368  0.4856398295440587  0.4639651981154697  1.0000
  C   C7        1.0  0.4832510982105763  0.48552872150577375  0.4640518615989625  1.0000
  C   C8        1.0  0.2961731248991705  0.42108157880914754  0.5674632530300385  1.0000
  C   C9        1.0  0.2589792356896247  0.30781812909784234  0.6093322377351873  1.0000
  C   C10       1.0  0.18630856009340802  0.30792501897152946  0.6092409136684498  1.0000
  C   C11       1.0  0.1498408379672488  0.421081449636495  0.5674633139384013  1.0000
  C   C12       1.0  0.0750228007780769  0.4210813359422456  0.5674635625985449  1.0000
  N   N2        1.0  0.014874483897480398  0.4210812951657224  0.5674637710182905  1.0000
  C   C13       1.0  0.18632062670515537  0.534237956124694  0.5256856613186365  1.0000
  C   C14       1.0  0.2589913357336866  0.534345026099746  0.5255941746595979  1.0000
  H   H1        1.0  0.5109261582824103  0.3067384285227881  0.7516159806506292  1.0000
  H   H2        1.0  0.3834470762182508  0.30742600977557033  0.752818048341527  1.0000
  H   H3        1.0  0.3834985020141676  0.5347375193298525  0.3821087922496522  1.0000
  H   H4        1.0  0.5109771587026001  0.5354247378378645  0.3833113090814259  1.0000
  H   H5        1.0  0.2860679680795015  0.21866018970248716  0.6404984552165258  1.0000
  H   H6        1.0  0.1585890378106335  0.21966661952775393  0.6414401191331616  1.0000
  H   H7        1.0  0.1586103255380773  0.6224963310323914  0.4934864704040066  1.0000
  H   H8        1.0  0.2860890821673793  0.6235030446697456  0.49442791240787476  1.0000
  C   C15       1.0  0.8347716892263249  0.039668135854323834  0.5674784278152273  1.0000
  C   C16       1.0  0.8957117657007581  0.04448715907974333  0.49220279676244627  1.0000
  C   C17       1.0  0.9267261610225643  0.929828509926401  0.4538926220679044  1.0000
  C   C18       1.0  0.8957434929871196  0.8092299474044649  0.49216358399682786  1.0000
  C   C19       1.0  0.8347863347516198  0.8024845396691554  0.5674603204506694  1.0000
  C   C20       1.0  0.8046595566125917  0.9182039755091403  0.604674172262792  1.0000
  C   C21       1.0  0.9911817961343972  0.9371327526897576  0.3742746776154786  1.0000
  O   O1        1.0  0.01833674100694083  0.045917370750349976  0.3407303191959614  1.0000
  Cl  Cl1       1.0  0.03211253952676074  0.796905083736038  0.323718431406782  1.0000
  H   H9        1.0  0.811461975997162  0.3653177994400217  0.5962711662226237  1.0000
  H   H10       1.0  0.9191229392988588  0.13791021217937538  0.4632842419255403  1.0000
  H   H11       1.0  0.9188979292706485  0.7200880617806396  0.46356231390966696  1.0000
  H   H12       1.0  0.7576492074880675  0.9137183325493452  0.6627437679313934  1.0000
  H   H13       1.0  0.8114083740642806  0.4723866351885716  0.5963347704376292  1.0000
  C   C22       1.0  0.8348304262813395  0.42097787627935257  0.1860981913784474  1.0000
  C   C23       1.0  0.892694438091099  0.5043749904818049  0.17867650467262175  1.0000
  C   C24       1.0  0.9222959846479721  0.5459076968356548  0.05777890559452747  1.0000
  C   C25       1.0  0.8925646569220527  0.5045779515535112  0.9433969475638405  1.0000
  C   C26       1.0  0.8347275812656844  0.42117481545723684  0.9488405876693564  1.0000
  C   C27       1.0  0.8062847119992859  0.379601016589145  0.07068395826076856  1.0000
  C   C28       1.0  0.9832597964785762  0.6343390788415877  0.049490296745448914  1.0000
  O   O2        1.0  0.9930090493400991  0.7075345454986739  0.9471148102885566  1.0000
  N   N3        1.0  0.03183779739056768  0.6367549540054347  0.15514434612748063  1.0000
  C   C29       1.0  0.0871379029601953  0.7343486408404674  0.15372647300831432  1.0000
  C   C30       1.0  0.1316846399266533  0.7159862878276524  0.27625184294202615  1.0000
  H   H14       1.0  0.8123333481776279  0.38998156273578055  0.5163460762187526  1.0000
  H   H15       1.0  0.9137368453641445  0.5388539301371729  0.26715241374455667  1.0000
  H   H16       1.0  0.9150392119713547  0.5366582988312327  0.849924998148308  1.0000
  H   H17       1.0  0.7616697109717532  0.3152524167868831  0.0756742641153949  1.0000
  H   H18       1.0  0.029099912849311457  0.5648919520221876  0.23234606123565849  1.0000
  H   H19       1.0  0.06371492555537506  0.8332711824573649  0.14808382126925568  1.0000
  H   H20       1.0  0.120709028737914  0.7258679647581469  0.06695267794495097  1.0000
  H   H21       1.0  0.09912686885816988  0.7255477058195092  0.36408339037267834  1.0000
  H   H22       1.0  0.15646240047261273  0.6182839930396313  0.2826188929384332  1.0000
  H   H23       1.0  0.1730378381436002  0.7913764683060567  0.2730262822616713  1.0000
  Zn  Zn1       1.0  0.7586221189233708  0.421077878285538  0.5674712768944723  1.0000
  Zn  Zn2       1.0  0.9109292382729327  0.42107418865470936  0.5674668887068763  1.0000
  C   C31       1.0  0.8347453738746666  0.4159633103046181  0.8046660516529655  1.0000
  C   C32       1.0  0.8348076465248958  0.42619039543812126  0.33027224132880506  1.0000
  C   C33       1.0  0.8347806769273194  0.6582946786333732  0.5622885522317596  1.0000
  C   C34       1.0  0.8347722914611978  0.18385746664473013  0.5726498100275645  1.0000
  O   O3        1.0  0.8925997593597718  0.4279326978897214  0.3786567043784316  1.0000
  O   O4        1.0  0.8925508405108681  0.41421722757579005  0.7562778842454648  1.0000
  O   O5        1.0  0.8925785688218949  0.6099028725672406  0.5605563385922365  1.0000
  O   O6        1.0  0.8925719790899496  0.2322470621656887  0.5743781526576879  1.0000
  O   O7        1.0  0.77697932613141  0.6099050047772302  0.5605600129383268  1.0000
  O   O8        1.0  0.7769515978564845  0.4142209202530865  0.7562814893086689  1.0000
  O   O9        1.0  0.7770005169612704  0.4279363449026421  0.3786587480327066  1.0000
  O   O10       1.0  0.7769727366752999  0.2322506999138627  0.5743802936806011  1.0000
