data_image0
_chemical_formula_structural       NC8NH4C10H5C6ClH4Zn2C4O8
_chemical_formula_sum              "N2 C28 H13 Cl1 Zn2 O8"
_cell_length_a       14.927258825633057
_cell_length_b       9.275150299802176
_cell_length_c       9.276548810779735
_cell_angle_alpha    85.75527424230437
_cell_angle_beta     89.72476465157726
_cell_angle_gamma    89.48389196497259

_space_group_name_H-M_alt    "P 1"
_space_group_IT_number       1

loop_
  _space_group_symop_operation_xyz
  'x, y, z'

loop_
  _atom_site_type_symbol
  _atom_site_label
  _atom_site_symmetry_multiplicity
  _atom_site_fract_x
  _atom_site_fract_y
  _atom_site_fract_z
  _atom_site_occupancy
  N   N1        1.0  0.8395837139521782  0.5644656201932754  0.4016865598668946  1.0000
  C   C1        1.0  0.7620572897229999  0.5644655938176837  0.4016865696654619  1.0000
  C   C2        1.0  0.6656246478116615  0.5644655940307926  0.4016866247280131  1.0000
  C   C3        1.0  0.6193377444604808  0.4752909558932544  0.312482166540901  1.0000
  C   C4        1.0  0.525626433492439  0.4752908657605397  0.31248213859650864  1.0000
  C   C5        1.0  0.4778086503733344  0.564465646296257  0.40168653664210674  1.0000
  C   C6        1.0  0.5240955539986537  0.6536402937663799  0.49089088674136105  1.0000
  C   C7        1.0  0.61780693195823  0.6536403838961811  0.49089091469169244  1.0000
  C   C8        1.0  0.3813760093415003  0.5644655481299166  0.40168648227827103  1.0000
  N   N2        1.0  0.30384958450695626  0.5644656294663586  0.40168649341536766  1.0000
  H   H1        1.0  0.6556294099470238  0.4059078590084415  0.24307611182710792  1.0000
  H   H2        1.0  0.4905257539012288  0.40590783621137794  0.2430762091557699  1.0000
  H   H3        1.0  0.48780388851211065  0.7230233906511923  0.5602969414551537  1.0000
  H   H4        1.0  0.652907544283767  0.723023404115672  0.5602969522143499  1.0000
  C   C9        1.0  0.07407732534197041  0.14078208860565122  0.4040987937154723  1.0000
  C   C10       1.0  0.12151923506691209  0.2218390547287761  0.29508650341185916  1.0000
  C   C11       1.0  0.16129517847975205  0.15464382988781167  0.18053435146408803  1.0000
  C   C12       1.0  0.15403378022156633  0.005412279318882442  0.17351900595465014  1.0000
  C   C13       1.0  0.10854963058162692  0.9229055610097516  0.28188370771524096  1.0000
  C   C14       1.0  0.06936455992899868  0.98813809762945  0.39928682243662184  1.0000
  C   C15       1.0  0.20875553387125878  0.23942018139715038  0.06902960617165912  1.0000
  C   C16       1.0  0.24849183062242838  0.31042300087751884  0.9756768936586053  1.0000
  C   C17       1.0  0.29502119095676993  0.39357228137586747  0.8663649386184789  1.0000
  C   C18       1.0  0.33474982635376804  0.4645697820581686  0.7730301211642439  1.0000
  H   H5        1.0  0.12581673107235014  0.3383077382120321  0.2973124946876735  1.0000
  H   H6        1.0  0.1843328155191304  0.9524580047858343  0.0848797085034874  1.0000
  H   H7        1.0  0.10582882527143322  0.8068487148687331  0.2756627865661214  1.0000
  H   H8        1.0  0.010114545164692684  0.8607923559031164  0.7416398662915444  1.0000
  H   H9        1.0  0.3696348820957056  0.5269116167107635  0.6910744424747626  1.0000
  C   C19       1.0  0.07300514903727828  0.5605947871505252  0.9785654023422188  1.0000
  C   C20       1.0  0.14784688666930035  0.6154396374020155  0.04736041505051469  1.0000
  C   C21       1.0  0.2176043716674294  0.6810378496258223  0.9667554178280932  1.0000
  C   C22       1.0  0.2135657132153659  0.6928953619442679  0.8162485555025905  1.0000
  C   C23       1.0  0.14068156066387405  0.6370384705956926  0.7458101835200198  1.0000
  C   C24       1.0  0.070436741567518  0.5683253682631371  0.8248202392663213  1.0000
  Cl  Cl1       1.0  0.309702722053383  0.7505086360280617  0.054865365533089294  1.0000
  H   H10       1.0  0.9652100185606901  0.3991056996554916  0.27248461789208256  1.0000
  H   H11       1.0  0.26736804825239185  0.7442208209599317  0.7534678284074219  1.0000
  H   H12       1.0  0.1403112406805147  0.644566721213938  0.6287191408695235  1.0000
  H   H13       1.0  0.9268282226309342  0.5154295568525229  0.5485245373038086  1.0000
  Zn  Zn1       1.0  0.9735608203824873  0.5644618252448101  0.40169489198206887  1.0000
  Zn  Zn2       1.0  0.16987252113601503  0.5644576880500021  0.40169006047092226  1.0000
  C   C25       1.0  0.07095221107254424  0.561116447527066  0.664892569671417  1.0000
  C   C26       1.0  0.07248326360971458  0.5678048874465085  0.1384925138144779  1.0000
  C   C27       1.0  0.070268210875714  0.8279173442865582  0.3944545493348599  1.0000
  C   C28       1.0  0.07316720622671968  0.3010022579648066  0.4089306208164869  1.0000
  O   O1        1.0  0.14680741644912237  0.5702167985453688  0.1921637155880893  1.0000
  O   O2        1.0  0.14562410407387283  0.5587003041767493  0.611217292292818  1.0000
  O   O3        1.0  0.1450707564316429  0.7741454161756884  0.39283666898264014  1.0000
  O   O4        1.0  0.14736069737395674  0.35477169588192714  0.41054423080447  1.0000
  O   O5        1.0  0.9960725771530111  0.7741478174157987  0.392840721642582  1.0000
  O   O6        1.0  0.9966259153835305  0.5587044381419819  0.6112212582813688  1.0000
  O   O7        1.0  0.9978092333557297  0.570220866407884  0.19216594949385657  1.0000
  O   O8        1.0  0.9983625140064253  0.3547757544118577  0.410546572798096  1.0000
