data_image0
_chemical_formula_structural       NC8NC6H8C6NCH9C6NCH6Zn2C4O8
_chemical_formula_sum              "N4 C32 H23 Zn2 O8"
_cell_length_a       17.457602349358154
_cell_length_b       9.273386996610926
_cell_length_c       9.273390368590327
_cell_angle_alpha    86.07317832945773
_cell_angle_beta     92.8511133753594
_cell_angle_gamma    91.0935878010965

_space_group_name_H-M_alt    "P 1"
_space_group_IT_number       1

loop_
  _space_group_symop_operation_xyz
  'x, y, z'

loop_
  _atom_site_type_symbol
  _atom_site_label
  _atom_site_symmetry_multiplicity
  _atom_site_fract_x
  _atom_site_fract_y
  _atom_site_fract_z
  _atom_site_occupancy
  N   N1        1.0  0.713658482138164  0.5972475071181811  0.4722441589369759  1.0000
  C   C1        1.0  0.6528662486308271  0.5461203713040375  0.4605733603201665  1.0000
  C   C2        1.0  0.5772380902596583  0.4825246728902533  0.446065462540139  1.0000
  C   C3        1.0  0.5184491928733742  0.5280089731050635  0.5290885328770734  1.0000
  C   C4        1.0  0.4442459197749609  0.46677294252036217  0.5152574369915206  1.0000
  C   C5        1.0  0.3818515514506067  0.5148004763656759  0.6031823243698986  1.0000
  C   C6        1.0  0.3071995325721267  0.5346532302236888  0.5412530985542201  1.0000
  C   C7        1.0  0.24841175263604715  0.579934545291531  0.6243964146295187  1.0000
  C   C8        1.0  0.17231818361707218  0.6004340144691238  0.5600070735518372  1.0000
  N   N2        1.0  0.1111519100627834  0.6169085045277964  0.5082382262703546  1.0000
  C   C9        1.0  0.2637822444481815  0.6056391195018704  0.7700327123577505  1.0000
  C   C10       1.0  0.33764709215375166  0.5862229211267882  0.8323911505858693  1.0000
  C   C11       1.0  0.3964220809592338  0.5411469592383834  0.7497553694094015  1.0000
  C   C12       1.0  0.430124606851558  0.35928341840045164  0.4168146802074828  1.0000
  C   C13       1.0  0.48889999912267135  0.31411331933798325  0.3342348540710658  1.0000
  C   C14       1.0  0.5623177242429915  0.37548062986396413  0.34867600010394395  1.0000
  H   H1        1.0  0.5303176278096956  0.6123009810011868  0.6028530343865046  1.0000
  H   H2        1.0  0.2949633181958625  0.5168255929592704  0.4280649332350541  1.0000
  H   H3        1.0  0.21872093957337055  0.6406292707268737  0.835253045762798  1.0000
  H   H4        1.0  0.3493600218322205  0.6057760110754689  0.9451613415566275  1.0000
  H   H5        1.0  0.4529930843629943  0.5250412954986909  0.8009590986405593  1.0000
  H   H6        1.0  0.3739220104492707  0.30881070990896786  0.4051023843629356  1.0000
  H   H7        1.0  0.47753865985609467  0.2310470686867663  0.2591378065943688  1.0000
  H   H8        1.0  0.6073843702661439  0.33953066411571853  0.2840249877632568  1.0000
  C   C15       1.0  0.914767351190662  0.18354836774215233  0.49116333109385857  1.0000
  C   C16       1.0  0.9282534027960193  0.26630584103633836  0.3620683977286643  1.0000
  C   C17       1.0  0.9345177530976208  0.2007275376885136  0.23231146485609666  1.0000
  C   C18       1.0  0.9273910089126461  0.05003886389764679  0.22832597727139392  1.0000
  C   C19       1.0  0.9152566726389153  0.9663805234601315  0.35709062295223615  1.0000
  C   C20       1.0  0.9100504149226843  0.030596990111889426  0.4893322326701515  1.0000
  N   N3        1.0  0.933007358795948  0.9793634841216983  0.09581969453541417  1.0000
  C   C21       1.0  0.9458047259908543  0.05639799109299681  0.9563325298888029  1.0000
  H   H9        1.0  0.930403385691761  0.44898163463655744  0.729202118666824  1.0000
  H   H10       1.0  0.9321657137363631  0.38312645135342405  0.3606544359518413  1.0000
  H   H11       1.0  0.9442043371862305  0.26876816307963414  0.13528867197009742  1.0000
  H   H12       1.0  0.9116367298231646  0.8497762352697478  0.3544891566567565  1.0000
  H   H13       1.0  0.9382404426015106  0.9043607089309897  0.8429240620818856  1.0000
  H   H14       1.0  0.9275843771677486  0.8667598959998711  0.09831732674147586  1.0000
  H   H15       1.0  0.8982600966333003  0.132353705876423  0.9269855719718874  1.0000
  H   H16       1.0  0.0013199530228464838  0.11669812597335551  0.9615921511374861  1.0000
  H   H17       1.0  0.9477504605563607  0.9781506919462014  0.8711841943760108  1.0000
  C   C22       1.0  0.9124694859419867  0.6025769133334842  0.06701493812865067  1.0000
  C   C23       1.0  0.9829302429857492  0.6031956060666492  0.1470025818532963  1.0000
  C   C24       1.0  0.052087623766997826  0.6171607636935967  0.0778327044913736  1.0000
  C   C25       1.0  0.052540688936744157  0.6309849363689028  0.926222871662755  1.0000
  C   C26       1.0  0.9825609748626928  0.6279570826818832  0.8454732172333643  1.0000
  C   C27       1.0  0.9123483141605938  0.6115684905876098  0.9134805906341881  1.0000
  N   N4        1.0  0.1229851676744893  0.6466748335136148  0.8517933088115206  1.0000
  C   C28       1.0  0.1987128723380851  0.6505905367399676  0.9256385688598662  1.0000
  H   H18       1.0  0.79179418355753  0.5273095615563202  0.34204229785793494  1.0000
  H   H19       1.0  0.10494067318235412  0.6184475097889301  0.14374189211199062  1.0000
  H   H20       1.0  0.7342259470520143  0.49067916256879984  0.802045777180139  1.0000
  H   H21       1.0  0.12044332003875181  0.6561101931126807  0.7386714610099232  1.0000
  H   H22       1.0  0.20317543667632765  0.7433557345345133  0.9953578479779669  1.0000
  H   H23       1.0  0.2086427143632278  0.5479584851548285  0.9922625633765169  1.0000
  Zn  Zn1       1.0  0.8283665194854373  0.6029174669446513  0.4826395992119206  1.0000
  Zn  Zn2       1.0  0.9964439226252744  0.6112268450895126  0.49785461124751934  1.0000
  C   C29       1.0  0.9124014867609361  0.6041231454177696  0.7534927290396913  1.0000
  C   C30       1.0  0.912410780595861  0.6100230786288063  0.22700178509207003  1.0000
  C   C31       1.0  0.9109389035136638  0.8704255816289274  0.48393470517079457  1.0000
  C   C32       1.0  0.9138733161284056  0.34371890760191287  0.4965598843542025  1.0000
  O   O1        1.0  0.976175612132756  0.6156691533264942  0.28646886380677605  1.0000
  O   O2        1.0  0.9762035212790751  0.6047826040266129  0.705573079876526  1.0000
  O   O3        1.0  0.9750216067499039  0.8198251625312003  0.48790298735512305  1.0000
  O   O4        1.0  0.9773574692665133  0.4006266011558472  0.5041388430502687  1.0000
  O   O5        1.0  0.8474529154876221  0.813517708044223  0.4763553622094497  1.0000
  O   O6        1.0  0.8486348203749442  0.5984768815212773  0.6940253741378961  1.0000
  O   O7        1.0  0.8486069118076002  0.6093633621579937  0.27491942538147596  1.0000
  O   O8        1.0  0.8497887689801948  0.3943208008193131  0.49258951270315743  1.0000
