data_image0
_chemical_formula_structural       NC11NC3H8C10ClC2H9C6OCH8Zn2C4O8
_chemical_formula_sum              "N2 C37 H25 Cl1 O9 Zn2"
_cell_length_a       17.807433833752565
_cell_length_b       10.299769246903262
_cell_length_c       10.300312196595936
_cell_angle_alpha    85.56019818288829
_cell_angle_beta     88.5300110544788
_cell_angle_gamma    90.70297831868984

_space_group_name_H-M_alt    "P 1"
_space_group_IT_number       1

loop_
  _space_group_symop_operation_xyz
  'x, y, z'

loop_
  _atom_site_type_symbol
  _atom_site_label
  _atom_site_symmetry_multiplicity
  _atom_site_fract_x
  _atom_site_fract_y
  _atom_site_fract_z
  _atom_site_occupancy
  N   N1        1.0  0.7075960355590541  0.4385210244233593  0.5348193794724113  1.0000
  C   C1        1.0  0.6567739195376199  0.4037920320808291  0.6013752681359266  1.0000
  C   C2        1.0  0.5935460816283504  0.36059202838055904  0.6841623001177163  1.0000
  C   C3        1.0  0.6052684208250633  0.297037631713148  0.8068688235177026  1.0000
  C   C4        1.0  0.5439481572287893  0.2555174768818474  0.8873721645488007  1.0000
  C   C5        1.0  0.47075118528912563  0.277238428168719  0.8458097163399915  1.0000
  C   C6        1.0  0.45805205517756503  0.3409473926319231  0.7226430376791595  1.0000
  C   C7        1.0  0.3802869521607516  0.363998558889727  0.678300204770629  1.0000
  C   C8        1.0  0.3614928605864984  0.34713141091410904  0.5487295909451462  1.0000
  C   C9        1.0  0.2882659364313143  0.3688136362133647  0.5071230734199176  1.0000
  C   C10       1.0  0.2328900423855341  0.40768156567061525  0.5942669716247317  1.0000
  C   C11       1.0  0.15752644137841604  0.4300223025326644  0.5512992903283613  1.0000
  N   N2        1.0  0.09693947948137802  0.44798259523863626  0.5167564017442745  1.0000
  C   C12       1.0  0.2509925792625655  0.42475930912894544  0.723306500754844  1.0000
  C   C13       1.0  0.3241667497735213  0.40304214439045144  0.7651684260850695  1.0000
  C   C14       1.0  0.520229630747739  0.382462981944316  0.6421561110156658  1.0000
  H   H1        1.0  0.6617328820274234  0.2796220322330288  0.8402311213749734  1.0000
  H   H2        1.0  0.5531424779584592  0.20606201439305338  0.9820990992200228  1.0000
  H   H3        1.0  0.4241091263862188  0.2426802807839661  0.9092425755263533  1.0000
  H   H4        1.0  0.4031614280442417  0.31549249175089994  0.48001748554088297  1.0000
  H   H5        1.0  0.2748161796795205  0.3549368518284537  0.4070960491636923  1.0000
  H   H6        1.0  0.2086069721654216  0.4551752328472698  0.7915038375253978  1.0000
  H   H7        1.0  0.3370883502960677  0.41846433019853935  0.8650127625177514  1.0000
  H   H8        1.0  0.5117340535007759  0.43328077506219165  0.5476635195447828  1.0000
  C   C15       1.0  0.9022007119794969  0.06188505265014953  0.5257857379387234  1.0000
  C   C16       1.0  0.9091312740564014  0.0716051775933555  0.3892656892105433  1.0000
  C   C17       1.0  0.9127148529168069  0.9593927612974459  0.3200971926789559  1.0000
  C   C18       1.0  0.9092738850255012  0.8363204851035062  0.38928101478994737  1.0000
  C   C19       1.0  0.9023420061896412  0.8246087221513355  0.5258008498423985  1.0000
  C   C20       1.0  0.8988444358300534  0.9379489631883604  0.5932886962466679  1.0000
  C   C21       1.0  0.9200481091824851  0.9707288729874579  0.175670419802624  1.0000
  C   C22       1.0  0.9687537549471816  0.8889723194197041  0.11092739891868562  1.0000
  C   C23       1.0  0.9755891441610494  0.8998363677323412  0.974982539598105  1.0000
  C   C24       1.0  0.9339372305575032  0.9921992627216082  0.9021166905604172  1.0000
  Cl  Cl1       1.0  0.9425959828440642  0.005584527859684219  0.7315679478401678  1.0000
  C   C25       1.0  0.8853746267628433  0.07387949309875388  0.9653622673380959  1.0000
  C   C26       1.0  0.8784059919097678  0.0634048034514949  0.10129301897885123  1.0000
  H   H9        1.0  0.8995311058169652  0.3856342184679101  0.5778046429045458  1.0000
  H   H10       1.0  0.9127936769559926  0.16669783844348052  0.3365109377993107  1.0000
  H   H11       1.0  0.9109791302941513  0.749526090356685  0.3363174022214734  1.0000
  H   H12       1.0  0.8934975706388749  0.9296822459252109  0.6986075711566524  1.0000
  H   H13       1.0  0.8997361402850172  0.49269282964414624  0.5778258563883143  1.0000
  H   H14       1.0  0.0022570380073343426  0.817847179109528  0.16547382937074667  1.0000
  H   H15       1.0  0.01342763799756752  0.8366059329265513  0.9264426957732341  1.0000
  H   H16       1.0  0.8528463191981348  0.14531828914781442  0.9093182878081798  1.0000
  H   H17       1.0  0.8397544041158173  0.1265713814409959  0.14814548285347362  1.0000
  C   C27       1.0  0.902250127142597  0.4432605897694444  0.14445218289448936  1.0000
  C   C28       1.0  0.8286646488052289  0.49087853534120063  0.14297541269691005  1.0000
  C   C29       1.0  0.7916381025882213  0.5148389006143057  0.024652986004170863  1.0000
  C   C30       1.0  0.8287514702974937  0.49082244322695945  0.9078297105278859  1.0000
  C   C31       1.0  0.9022925759518504  0.44323321733166754  0.9071344615884811  1.0000
  C   C32       1.0  0.9386592620316483  0.41969980275565333  0.02600877999670725  1.0000
  O   O1        1.0  0.7181872830607098  0.5623699321334898  0.01887714459441936  1.0000
  C   C33       1.0  0.6735658048450572  0.5912452808376121  0.12939960422947516  1.0000
  H   H18       1.0  0.9302884014245955  0.42511770602968996  0.4724444964216423  1.0000
  H   H19       1.0  0.8004149404116715  0.5091592055387748  0.2338097508463743  1.0000
  H   H20       1.0  0.7996570974284537  0.5096498582578417  0.8173916395481173  1.0000
  H   H21       1.0  0.99540123409096  0.38298151340873177  0.026343898390436486  1.0000
  H   H22       1.0  0.9301237826838643  0.42522379036300334  0.5794622958574388  1.0000
  H   H23       1.0  0.6644268763458369  0.502046078066462  0.1959252053212743  1.0000
  H   H24       1.0  0.6182050999333444  0.6270697922183566  0.09638720241843224  1.0000
  H   H25       1.0  0.7014098176006782  0.6683404569555127  0.1814121349239073  1.0000
  Zn  Zn1       1.0  0.8199521427654084  0.44124795449089405  0.5296142781864311  1.0000
  Zn  Zn2       1.0  0.9845833561365342  0.4452450452570238  0.521972088061628  1.0000
  C   C34       1.0  0.902281908106056  0.4380646936054349  0.7629711425701877  1.0000
  C   C35       1.0  0.902255388874206  0.44842998839667514  0.288615267715113  1.0000
  C   C36       1.0  0.9023111226933999  0.6804378244657148  0.5206234119783553  1.0000
  C   C37       1.0  0.9022261178245982  0.2060552958758983  0.5309630701172778  1.0000
  O   O2        1.0  0.9647338412015849  0.4516760952031787  0.33409754448963813  1.0000
  O   O3        1.0  0.9647547372181277  0.43785130650029225  0.7116882464809147  1.0000
  O   O4        1.0  0.9647774862263786  0.6335706543998865  0.5159907785007002  1.0000
  O   O5        1.0  0.9647110360121557  0.2559567552333144  0.5297949177102252  1.0000
  O   O6        1.0  0.8398244067092335  0.6305362431520067  0.5217914511389077  1.0000
  O   O7        1.0  0.8398016579826937  0.4348184555503116  0.7174888499098651  1.0000
  O   O8        1.0  0.8397807619208599  0.4486431990547428  0.3398965866284322  1.0000
  O   O9        1.0  0.8397579567320554  0.25292384979255167  0.5355940572097211  1.0000
