data_image0
_chemical_formula_structural       NC6NC2H4C7NH3C7NH4Zn2C4O8
_chemical_formula_sum              "N4 C26 H11 Zn2 O8"
_cell_length_a       14.927258858638513
_cell_length_b       9.275154477615127
_cell_length_c       9.275157849593905
_cell_angle_alpha    86.33461140486662
_cell_angle_beta     89.74087902936087
_cell_angle_gamma    89.43371000992973

_space_group_name_H-M_alt    "P 1"
_space_group_IT_number       1

loop_
  _space_group_symop_operation_xyz
  'x, y, z'

loop_
  _atom_site_type_symbol
  _atom_site_label
  _atom_site_symmetry_multiplicity
  _atom_site_fract_x
  _atom_site_fract_y
  _atom_site_fract_z
  _atom_site_occupancy
  N   N1        1.0  0.8384217002071963  0.5626393999513545  0.41656689885580134  1.0000
  C   C1        1.0  0.7608952091845217  0.562639371548888  0.41656690932876916  1.0000
  C   C2        1.0  0.664462701075271  0.5626394861458142  0.416566859937785  1.0000
  C   C3        1.0  0.617919448295852  0.5377334080852312  0.28981956151917787  1.0000
  C   C4        1.0  0.5242081371774445  0.5377334324314955  0.28981942819694373  1.0000
  C   C5        1.0  0.4766466381222732  0.5626393088079317  0.41656687785835045  1.0000
  C   C6        1.0  0.38021406302148536  0.5626394234077644  0.416566828461455  1.0000
  N   N2        1.0  0.3026875719988109  0.5626393950052981  0.41656683893442326  1.0000
  C   C7        1.0  0.523189823910155  0.5875453868714211  0.5433141762710465  1.0000
  C   C8        1.0  0.6169011350285623  0.5875453625251571  0.5433143095932809  1.0000
  H   H1        1.0  0.6540117709645408  0.518355073893676  0.19120288906744243  1.0000
  H   H2        1.0  0.4889081142525142  0.5183552713472681  0.1912028849166496  1.0000
  H   H3        1.0  0.48709756798272763  0.6069237117879314  0.6419309567392562  1.0000
  H   H4        1.0  0.6522011570369821  0.6069236219795451  0.6419309632601315  1.0000
  C   C9        1.0  0.07315605801634774  0.13923403218050923  0.4148991755564142  1.0000
  C   C10       1.0  0.04893082121125225  0.22118945281121127  0.2878310030584983  1.0000
  C   C11       1.0  0.017399609289437297  0.153992183438531  0.16749382175687866  1.0000
  C   C12       1.0  0.00957284050620722  0.003922830426348107  0.17280758172136546  1.0000
  C   C13       1.0  0.03463667191892351  0.9207318422523553  0.2969793363127895  1.0000
  C   C14       1.0  0.06796183959688107  0.9860337904545404  0.41824704691950787  1.0000
  C   C15       1.0  0.9919869325644285  0.23951466807890157  0.038894146495729975  1.0000
  N   N3        1.0  0.971562197343876  0.30825915690597055  0.9355329480963137  1.0000
  H   H5        1.0  0.08951153604463884  0.21931175431456484  0.7686550210673533  1.0000
  H   H6        1.0  0.9848617844327909  0.9509056100046043  0.08032090015213411  1.0000
  H   H7        1.0  0.08277932618694339  0.6895461070875085  0.6552735255862026  1.0000
  C   C16       1.0  0.07177264208766503  0.5585583625681698  0.9933592064368649  1.0000
  C   C17       1.0  0.14869832836338626  0.6055619619248886  0.06324106143101815  1.0000
  C   C18       1.0  0.22095906408569832  0.6639032037046397  0.9835935428732586  1.0000
  C   C19       1.0  0.21713499513201948  0.676168351300932  0.8329830863951719  1.0000
  C   C20       1.0  0.14205826898672366  0.6279971996668363  0.7617550734721306  1.0000
  C   C21       1.0  0.06934527586044495  0.5667093987860312  0.8397870023563221  1.0000
  C   C22       1.0  0.2987504590843197  0.7129147463567472  0.05679092835196897  1.0000
  N   N4        1.0  0.36127482605461086  0.7523068110869384  0.11562925856032091  1.0000
  H   H8        1.0  0.8541033083781435  0.5099441135908587  0.10100463605798748  1.0000
  H   H9        1.0  0.27263912912502725  0.7217757221368979  0.770340594453701  1.0000
  H   H10       1.0  0.141813590811834  0.6355775681512927  0.6447206027602843  1.0000
  H   H11       1.0  0.9237656665376457  0.5279243246560597  0.5622271749557042  1.0000
  Zn  Zn1       1.0  0.9723988099080743  0.5626356152188599  0.4165751937814155  1.0000
  Zn  Zn2       1.0  0.16871051171906642  0.5626314834950628  0.41657031950208423  1.0000
  C   C23       1.0  0.06983731299064916  0.5594247597523111  0.6797712912096696  1.0000
  C   C24       1.0  0.07127414078941308  0.565844159515555  0.15337437066542758  1.0000
  C   C25       1.0  0.06895551239762243  0.8259152862517807  0.41187118497007913  1.0000
  C   C26       1.0  0.07215588480038249  0.2993519014700585  0.42127454689377863  1.0000
  O   O1        1.0  0.1456061455341373  0.5682814813106982  0.20707504690497047  1.0000
  O   O2        1.0  0.1445013554386144  0.5569832103665795  0.6260664963390503  1.0000
  O   O3        1.0  0.14378828172454328  0.7721776951997088  0.40973527106491003  1.0000
  O   O4        1.0  0.1463191525069476  0.3530870057526141  0.4234061641626361  1.0000
  O   O5        1.0  0.9947901021286553  0.7721800929642151  0.4097393491149526  1.0000
  O   O6        1.0  0.9955031654332467  0.556987339680019  0.6260705043944219  1.0000
  O   O7        1.0  0.9966079608656594  0.5682855436937564  0.2070773220393367  1.0000
  O   O8        1.0  0.9973209675881932  0.3530910588635334  0.4234085473075664  1.0000
