data_image0
_chemical_formula_structural       NC8NC6H8C10SC3H12C6OCH8Zn2C4O8
_chemical_formula_sum              "N2 C38 H28 S1 O9 Zn2"
_cell_length_a       17.457602349358154
_cell_length_b       10.299151087687916
_cell_length_c       10.300312196595936
_cell_angle_alpha    85.53503560211027
_cell_angle_beta     92.88147454960499
_cell_angle_gamma    91.70376281942278

_space_group_name_H-M_alt    "P 1"
_space_group_IT_number       1

loop_
  _space_group_symop_operation_xyz
  'x, y, z'

loop_
  _atom_site_type_symbol
  _atom_site_label
  _atom_site_symmetry_multiplicity
  _atom_site_fract_x
  _atom_site_fract_y
  _atom_site_fract_z
  _atom_site_occupancy
  N   N1        1.0  0.7225653262714985  0.4530063612588502  0.6260137890488009  1.0000
  C   C1        1.0  0.6614798854348061  0.4070776412385453  0.6154171091460452  1.0000
  C   C2        1.0  0.5854870154023588  0.3499480280458942  0.6022443784063658  1.0000
  C   C3        1.0  0.5269686821904592  0.3901105243355909  0.6771211651694273  1.0000
  C   C4        1.0  0.4524142482951147  0.33509933085460664  0.6645619860226377  1.0000
  C   C5        1.0  0.3903056073477105  0.37750500298658113  0.7438593941604148  1.0000
  C   C6        1.0  0.3157585502838829  0.39597703041226856  0.688092102942576  1.0000
  C   C7        1.0  0.2572401927144156  0.4359555816430569  0.7630769099405248  1.0000
  C   C8        1.0  0.1812549454754349  0.4550335953212654  0.7050940586446679  1.0000
  N   N2        1.0  0.1201757222520575  0.47036593807475363  0.6584759997911402  1.0000
  C   C9        1.0  0.272776794966278  0.45770524877249613  0.8943373957177138  1.0000
  C   C10       1.0  0.3465392285330686  0.43962222671221984  0.9504921045209578  1.0000
  C   C11       1.0  0.4050460342716331  0.3998237281686212  0.8759649172958786  1.0000
  C   C12       1.0  0.4376666101482595  0.23924821710530472  0.5756934637611193  1.0000
  C   C13       1.0  0.4961732898486214  0.19936440967446314  0.5012165430793727  1.0000
  C   C14       1.0  0.5699430062418122  0.25448796798075257  0.5143255915852367  1.0000
  H   H1        1.0  0.5393278146446041  0.4653087769573825  0.7437175142250501  1.0000
  H   H2        1.0  0.3034054989901683  0.3810092537004131  0.5860801962629205  1.0000
  H   H3        1.0  0.2279238105509144  0.48858846531132843  0.9531570865333089  1.0000
  H   H4        1.0  0.3583787817631677  0.4561478098126741  0.05213015210019988  1.0000
  H   H5        1.0  0.4615320156503324  0.3848289422921689  0.9220743851111969  1.0000
  H   H6        1.0  0.3811745339341392  0.19390921659809382  0.5650604335805924  1.0000
  H   H7        1.0  0.48432806692053754  0.12528275763123298  0.4334215038813747  1.0000
  H   H8        1.0  0.614795932870585  0.22273496080797317  0.45601734037897423  1.0000
  C   C15       1.0  0.9213168501711049  0.08028273878139204  0.6424032602457845  1.0000
  C   C16       1.0  0.9059642316997616  0.0892767532726042  0.5069172617916897  1.0000
  C   C17       1.0  0.8982399461661413  0.9767091618285509  0.4380678103100528  1.0000
  C   C18       1.0  0.9060739561215305  0.8540293507096061  0.5065272428979253  1.0000
  C   C19       1.0  0.9214315107975006  0.8430798165585389  0.6420983715236985  1.0000
  C   C20       1.0  0.9289599251453076  0.9567191171350452  0.7092022484145588  1.0000
  C   C21       1.0  0.8819928066118163  0.9872586472416758  0.2947464871049579  1.0000
  C   C22       1.0  0.8287076649005493  0.0769350326514393  0.23712615389438652  1.0000
  C   C23       1.0  0.8134422566770896  0.08663535130233435  0.1022383720987845  1.0000
  C   C24       1.0  0.8510143045031944  0.0069112335651613215  0.023263194549117294  1.0000
  S   S1        1.0  0.8315094970126349  0.019825812425807943  0.8501553270480056  1.0000
  C   C25       1.0  0.7539297343751624  0.8978825315769222  0.8569431593842127  1.0000
  C   C26       1.0  0.9042774081991453  0.917812632539985  0.07947497430558492  1.0000
  C   C27       1.0  0.9196532659963159  0.9077709909535324  0.21433453945589975  1.0000
  H   H9        1.0  0.9271811872455717  0.404296278719835  0.6945255659549818  1.0000
  H   H10       1.0  0.9010179523731354  0.18413769266468694  0.45435618380696985  1.0000
  H   H11       1.0  0.899140035852652  0.7668630548027559  0.45420420035177345  1.0000
  H   H12       1.0  0.9407992720457844  0.9490658028514715  0.8137066471218763  1.0000
  H   H13       1.0  0.949939411481744  0.6150863844178074  0.8980984415579448  1.0000
  H   H14       1.0  0.7981303489127027  0.13833081654126667  0.2965375244174242  1.0000
  H   H15       1.0  0.7721240619871076  0.15575633667122601  0.05930464127514324  1.0000
  H   H16       1.0  0.7300283771974301  0.8858283249341167  0.756647818883732  1.0000
  H   H17       1.0  0.7077296138841574  0.9296680265879916  0.9166190208966221  1.0000
  H   H18       1.0  0.7758889214928686  0.8030343108238389  0.8995461379167518  1.0000
  H   H19       1.0  0.93383286207365  0.8562899013064266  0.01878086152689429  1.0000
  H   H20       1.0  0.961705397486469  0.8390829452042655  0.25555427964674604  1.0000
  C   C28       1.0  0.9213525195912982  0.4616945588518697  0.2609069189392963  1.0000
  C   C29       1.0  0.8462026796886037  0.5078243658574781  0.2498590157718692  1.0000
  C   C30       1.0  0.8083889821562249  0.5310359335144568  0.1267206116836488  1.0000
  C   C31       1.0  0.8462913469247416  0.5077700295656267  0.014724606280355658  1.0000
  C   C32       1.0  0.921395870820585  0.46166804487651514  0.023594718831927434  1.0000
  C   C33       1.0  0.958535680180433  0.43887008338597644  0.14719918781808872  1.0000
  O   O1        1.0  0.7333766637807159  0.5770815497289983  0.11139115203732608  1.0000
  C   C34       1.0  0.6878065727682615  0.6050545065215227  0.21610977481126614  1.0000
  H   H21       1.0  0.9499868625112048  0.4441187006300966  0.5925461207576128  1.0000
  H   H22       1.0  0.8173524077192715  0.5255337347384714  0.33701896434116185  1.0000
  H   H23       1.0  0.8165784536614213  0.5260090614213184  0.9205022816384986  1.0000
  H   H24       1.0  0.016483935899372477  0.40329930193258856  0.15491463410230932  1.0000
  H   H25       1.0  0.9498187441401877  0.44422145579422406  0.6995425087212555  1.0000
  H   H26       1.0  0.6784770486124263  0.5156616859705503  0.28148888910909076  1.0000
  H   H27       1.0  0.6312689487010299  0.6397594437441831  0.17589670405942792  1.0000
  H   H28       1.0  0.7162388345610965  0.6827215783006326  0.2717017294102524  1.0000
  Zn  Zn1       1.0  0.837307097628926  0.4580124768608962  0.6353891812154195  1.0000
  Zn  Zn2       1.0  0.005433935647926264  0.4653491733160515  0.6491112437107891  1.0000
  C   C35       1.0  0.9213851769606429  0.45649882663821195  0.8794323083733248  1.0000
  C   C36       1.0  0.9213576925096681  0.46686454241920394  0.405068393200432  1.0000
  C   C37       1.0  0.9214056093042163  0.6988949717497517  0.6369808390708156  1.0000
  C   C38       1.0  0.9213372025654926  0.22446683435746778  0.6475199276783754  1.0000
  O   O2        1.0  0.9851626865642924  0.4713782079460192  0.4586577543625323  1.0000
  O   O3        1.0  0.9851845626036693  0.45755256416277734  0.8362573017084336  1.0000
  O   O4        1.0  0.9852002019577912  0.65329047927818  0.6404759541225353  1.0000
  O   O5        1.0  0.9851469898357337  0.27564029962155057  0.6544389998940274  1.0000
  O   O6        1.0  0.8575939860676799  0.647721348053157  0.6300614203426835  1.0000
  O   O7        1.0  0.8575783469407212  0.45198499338570963  0.82584269806365  1.0000
  O   O8        1.0  0.8575564708568452  0.46581059196539587  0.4482415894417668  1.0000
  O   O9        1.0  0.8575407741292853  0.2700726743477524  0.6440229323381681  1.0000
