data_image0
_chemical_formula_structural       NC10NC3NCH9C12ClH9C13NH12Zn2C4O8
_chemical_formula_sum              "N4 C43 H30 Cl1 Zn2 O8"
_cell_length_a       19.437513618241372
_cell_length_b       10.299768534541528
_cell_length_c       10.299780419254978
_cell_angle_alpha    85.57457807328838
_cell_angle_beta     90.33405371402337
_cell_angle_gamma    89.54057453160664

_space_group_name_H-M_alt    "P 1"
_space_group_IT_number       1

loop_
  _space_group_symop_operation_xyz
  'x, y, z'

loop_
  _atom_site_type_symbol
  _atom_site_label
  _atom_site_symmetry_multiplicity
  _atom_site_fract_x
  _atom_site_fract_y
  _atom_site_fract_z
  _atom_site_occupancy
  N   N1        1.0  0.6482596159084929  0.4101512095980547  0.5758430100456051  1.0000
  C   C1        1.0  0.5893294368936899  0.42716043353405087  0.5728690217590191  1.0000
  C   C2        1.0  0.5158929068840042  0.44841190530982494  0.5691775381156772  1.0000
  C   C3        1.0  0.4741141315358678  0.3472221678436751  0.5575073768084913  1.0000
  C   C4        1.0  0.3982264854488626  0.35728559955461886  0.5502874433514393  1.0000
  C   C5        1.0  0.3586606998384251  0.43814270686711065  0.6160364027956844  1.0000
  C   C6        1.0  0.2824776834550611  0.4295333142849611  0.6075916709921478  1.0000
  C   C7        1.0  0.24932069753461503  0.30819184579024217  0.6122212688295778  1.0000
  C   C8        1.0  0.1775854964532976  0.301819114505987  0.6050527812297912  1.0000
  C   C9        1.0  0.1380365454113348  0.4163152316762093  0.5936168601777263  1.0000
  C   C10       1.0  0.0641868263627131  0.4096043017063759  0.5862802499796265  1.0000
  N   N2        1.0  0.004816750341926  0.404209304133744  0.5803820738338827  1.0000
  C   C11       1.0  0.17047682376140885  0.5373462475644306  0.589732474058978  1.0000
  C   C12       1.0  0.24219646847200602  0.54397297413576  0.596963009084015  1.0000
  C   C13       1.0  0.387353552311445  0.5304390033956159  0.7059631149626093  1.0000
  N   N3        1.0  0.4443512327995052  0.5936472223653395  0.6855668143932308  1.0000
  C   C14       1.0  0.4881986812835385  0.5843698929269627  0.5724627214176792  1.0000
  H   H1        1.0  0.49648235743954466  0.25216620766283926  0.5453760013298061  1.0000
  H   H2        1.0  0.3735044039209348  0.28776645104362975  0.49196384152623884  1.0000
  H   H3        1.0  0.2787544476915892  0.21828352230612036  0.6232315989795925  1.0000
  H   H4        1.0  0.1529751155417938  0.20759544394314225  0.6089292363807686  1.0000
  H   H5        1.0  0.140357506256449  0.6266000091990542  0.581034126151831  1.0000
  H   H6        1.0  0.2663254011853188  0.6386094331924004  0.5930711410283795  1.0000
  H   H7        1.0  0.3573477158720998  0.5508362498375257  0.790328689578357  1.0000
  H   H8        1.0  0.5309632004314364  0.6546816437480584  0.578233773022742  1.0000
  H   H9        1.0  0.45854317652303483  0.6124650479318625  0.48182391156036936  1.0000
  C   C15       1.0  0.8264765911311149  0.02581586189180208  0.5781096545096749  1.0000
  C   C16       1.0  0.8310246997868175  0.03527659429623786  0.44170423019006777  1.0000
  C   C17       1.0  0.833395403729358  0.9229299547822326  0.37259474741318477  1.0000
  C   C18       1.0  0.8311560999712138  0.7999866903955236  0.4417213922795003  1.0000
  C   C19       1.0  0.8266063728131094  0.7885344559123489  0.5781267339478564  1.0000
  C   C20       1.0  0.8242926037855005  0.9020055594803006  0.6455570006774349  1.0000
  C   C21       1.0  0.8382078383117348  0.9339922735449326  0.22828919144036086  1.0000
  C   C22       1.0  0.7990766524012027  0.028168548235326444  0.15333029194700032  1.0000
  C   C23       1.0  0.8036675521404695  0.03838390317203788  0.017514566480954844  1.0000
  C   C24       1.0  0.847323406265255  0.9549458602757946  0.9549651089971198  1.0000
  C   C25       1.0  0.8864435036316872  0.8610816917563318  0.028412708857383562  1.0000
  C   C26       1.0  0.8819747805571204  0.8504720526568582  0.16424463233666797  1.0000
  Cl  Cl1       1.0  0.853006713864864  0.9680098615745858  0.7845594614039855  1.0000
  H   H10       1.0  0.8247082372102104  0.3496651950137415  0.6300831335337436  1.0000
  H   H11       1.0  0.8336837155047314  0.13023337832545456  0.3890076558695499  1.0000
  H   H12       1.0  0.8320196744476135  0.7131271939865147  0.38878841486124704  1.0000
  H   H13       1.0  0.8207832505437519  0.8939388628297325  0.7507874975427713  1.0000
  H   H14       1.0  0.824900106576805  0.45671641717605693  0.630108804031208  1.0000
  H   H15       1.0  0.7642847803541499  0.09273426084566738  0.19962892692169107  1.0000
  H   H16       1.0  0.7731276988318972  0.11099476808387673  0.9610163280292445  1.0000
  H   H17       1.0  0.9204683048604435  0.7964817860017582  0.9804149002030688  1.0000
  H   H18       1.0  0.9133878559316955  0.7781396252892533  0.21925974340275767  1.0000
  C   C27       1.0  0.8265883124089118  0.4070895266851016  0.19676465724977366  1.0000
  C   C28       1.0  0.8764172190782469  0.50528737056703  0.1887394366687578  1.0000
  C   C29       1.0  0.9016128884327839  0.5551411636570858  0.0675284005476775  1.0000
  C   C30       1.0  0.8763227566183638  0.5054611758144056  0.9534380617558692  1.0000
  C   C31       1.0  0.826494666856762  0.4072607989967672  0.9594717393328902  1.0000
  C   C32       1.0  0.8019045764934415  0.35862832622239216  0.08159293186485583  1.0000
  C   C33       1.0  0.9543299124740418  0.6590234367775714  0.06013001225937331  1.0000
  C   C34       1.0  0.9496968382766369  0.7636773313491716  0.9642468560807624  1.0000
  C   C35       1.0  0.9993375904901304  0.861365773651541  0.957369281284465  1.0000
  C   C36       1.0  0.05417955378239881  0.8567487816918953  0.04674183589124392  1.0000
  C   C37       1.0  0.059472120682886986  0.7518050619991221  0.14157660947150474  1.0000
  C   C38       1.0  0.009845589626634512  0.654091683953945  0.14862713547789608  1.0000
  C   C39       1.0  0.10852625950902639  0.9600598972858229  0.036980364346392854  1.0000
  N   N4        1.0  0.16126237376228802  0.9265294385214624  0.9447731720329121  1.0000
  H   H19       1.0  0.8076291185111977  0.369624222086543  0.5272798156664529  1.0000
  H   H20       1.0  0.8950735469655194  0.5444819560850516  0.2768476198881664  1.0000
  H   H21       1.0  0.8962736766777388  0.5422833398562987  0.8598853000731378  1.0000
  H   H22       1.0  0.7634640729738368  0.2828721107744079  0.08701546294141571  1.0000
  H   H23       1.0  0.9072669638230506  0.7707307714783466  0.8954051332380231  1.0000
  H   H24       1.0  0.9949199014054247  0.9408387408485577  0.882475392319782  1.0000
  H   H25       1.0  0.10215758001230338  0.7453996156970681  0.20989507484879666  1.0000
  H   H26       1.0  0.015462211325493195  0.5735815884213904  0.2220703790799159  1.0000
  H   H27       1.0  0.08476993065948601  0.055481393434691384  0.0033993315982254724  1.0000
  H   H28       1.0  0.132254390069116  0.9709747045487437  0.134139345397986  1.0000
  H   H29       1.0  0.1959937750123288  0.0036413756964486224  0.9352773779921689  1.0000
  H   H30       1.0  0.18885044516143165  0.8457670844573566  0.9858952186275562  1.0000
  Zn  Zn1       1.0  0.7511543068407921  0.4084330165459875  0.5771603943793959  1.0000
  Zn  Zn2       1.0  0.901922062493707  0.40591683016213675  0.5790753587034263  1.0000
  C   C40       1.0  0.8265099335504368  0.40205486344492275  0.8153036636564962  1.0000
  C   C41       1.0  0.8265680824264161  0.41229659441495126  0.3409322378357864  1.0000
  C   C42       1.0  0.8265789297911088  0.6443633383201988  0.5729485340977187  1.0000
  C   C43       1.0  0.8264990344652658  0.16998656013008426  0.5832874359419304  1.0000
  O   O1        1.0  0.8837768696330063  0.4130835886197742  0.3900429137214047  1.0000
  O   O2        1.0  0.8837303842352255  0.3993571622007097  0.7676460275305785  1.0000
  O   O3        1.0  0.8837853281129586  0.5950243332469296  0.5719425359427728  1.0000
  O   O4        1.0  0.8837218743219897  0.21741642770039846  0.5857463072852245  1.0000
  O   O5        1.0  0.7693544435628745  0.5969334198677889  0.5704894451372837  1.0000
  O   O6        1.0  0.7692994999559851  0.401267809091224  0.7661928675174094  1.0000
  O   O7        1.0  0.769345985583572  0.41499418990342035  0.38858819236998077  1.0000
  O   O8        1.0  0.7692909902562043  0.2193270197172641  0.5842916832974729  1.0000
