data_image0
_chemical_formula_structural       NC8NC6H8C6SCNH5C8NH11Zn2C4O8
_chemical_formula_sum              "N4 C33 H24 S1 Zn2 O8"
_cell_length_a       17.457602349358154
_cell_length_b       10.302215558581764
_cell_length_c       9.275652972338536
_cell_angle_alpha    85.94620534348942
_cell_angle_beta     93.30040864466163
_cell_angle_gamma    91.70712283406877

_space_group_name_H-M_alt    "P 1"
_space_group_IT_number       1

loop_
  _space_group_symop_operation_xyz
  'x, y, z'

loop_
  _atom_site_type_symbol
  _atom_site_label
  _atom_site_symmetry_multiplicity
  _atom_site_fract_x
  _atom_site_fract_y
  _atom_site_fract_z
  _atom_site_occupancy
  N   N1        1.0  0.7165606614531254  0.44308658458040756  0.47523777468386047  1.0000
  C   C1        1.0  0.655425951603493  0.3971003311683537  0.4634449820234414  1.0000
  C   C2        1.0  0.5793718334253852  0.33989921005848567  0.44878534299594625  1.0000
  C   C3        1.0  0.5211869111652332  0.3805626662537427  0.5319483261511937  1.0000
  C   C4        1.0  0.4465740538076675  0.3254834756545786  0.5179711790923018  1.0000
  C   C5        1.0  0.38481850130418077  0.3684197261579498  0.6060439146144059  1.0000
  C   C6        1.0  0.31002562965387837  0.38650257892483564  0.5441333458814521  1.0000
  C   C7        1.0  0.2518411515014945  0.42698289308342163  0.6274161624025723  1.0000
  C   C8        1.0  0.17560031716776592  0.44565631317610266  0.5630458948972568  1.0000
  N   N2        1.0  0.1143156022694266  0.46066336586030676  0.511292366644468  1.0000
  C   C9        1.0  0.2679597099721858  0.44962690895522406  0.7731741784273878  1.0000
  C   C10       1.0  0.3419696926003448  0.43193559338658494  0.8355151436152923  1.0000
  C   C11       1.0  0.4001446532214809  0.39163841531842697  0.7527405510048162  1.0000
  C   C12       1.0  0.4314282070788671  0.22905379021800987  0.41924001248388865  1.0000
  C   C13       1.0  0.48960325967418233  0.18867167684810826  0.3365211837518405  1.0000
  C   C14       1.0  0.5634338385298485  0.24386697177338457  0.35110894481951593  1.0000
  H   H1        1.0  0.5338446279030061  0.45619337052486064  0.6059375119863626  1.0000
  H   H2        1.0  0.2972203988127524  0.3708390972115921  0.4308554992270852  1.0000
  H   H3        1.0  0.22336860303927464  0.4809038774220716  0.838502728198836  1.0000
  H   H4        1.0  0.3542598517196692  0.449153796347364  0.9483787822659019  1.0000
  H   H5        1.0  0.4568338932323965  0.3769653141373946  0.8039295607367978  1.0000
  H   H6        1.0  0.3748867315412137  0.18365681082958732  0.4074072016513326  1.0000
  H   H7        1.0  0.47745420606415256  0.11414896911361616  0.2612016801290695  1.0000
  H   H8        1.0  0.6080271057609242  0.2117240143393469  0.28634776653011595  1.0000
  C   C15       1.0  0.915365406677668  0.0705992964301172  0.49321879559814036  1.0000
  C   C16       1.0  0.9924682572970368  0.07020791655895507  0.5455622629121166  1.0000
  C   C17       1.0  0.030839791202720082  0.9529752662413254  0.5720665928511408  1.0000
  C   C18       1.0  0.9926682400257034  0.8350422799327054  0.5457024361708875  1.0000
  C   C19       1.0  0.9155182144655393  0.8331410041205359  0.4933244387043883  1.0000
  C   C20       1.0  0.8772820785827364  0.9514578002665391  0.4674252981067461  1.0000
  S   S1        1.0  0.129344049146632  0.9539947276346485  0.6382987511429086  1.0000
  C   C21       1.0  0.10476879466844546  0.9411879533061238  0.8207735081200651  1.0000
  N   N3        1.0  0.08863418439656102  0.932791374754016  0.9403991960890699  1.0000
  H   H9        1.0  0.886026659514394  0.39808782807393833  0.47322887422376714  1.0000
  H   H10       1.0  0.02301271955915496  0.16063866837726046  0.5662161216727426  1.0000
  H   H11       1.0  0.02334978239531172  0.7451978405029114  0.5664524506395798  1.0000
  H   H12       1.0  0.8178172960617635  0.9509101094663134  0.4270761445895941  1.0000
  H   H13       1.0  0.7701227912073422  0.6223502032659716  0.39445180033104577  1.0000
  C   C22       1.0  0.9137327006582743  0.4492641383837084  0.0698456719807814  1.0000
  C   C23       1.0  0.8639676340537837  0.531994082583328  0.13149205982058754  1.0000
  C   C24       1.0  0.8202641644102892  0.6225681994262267  0.04484164184594074  1.0000
  C   C25       1.0  0.8252887832703033  0.6291157173215197  0.8945124851757636  1.0000
  C   C26       1.0  0.8733639829531972  0.5463688929221804  0.8313048484992152  1.0000
  C   C27       1.0  0.9171509691901878  0.45447620283632406  0.9166975952217281  1.0000
  C   C28       1.0  0.766413942662563  0.709014130811373  0.112514796992613  1.0000
  C   C29       1.0  0.6874865092519574  0.6420889072262748  0.1261401178168482  1.0000
  N   N4        1.0  0.6354490606120223  0.7275315357303254  0.18964162739583834  1.0000
  H   H14       1.0  0.9699501465964252  0.25884589035571115  0.3715255265888793  1.0000
  H   H15       1.0  0.8603161341722525  0.5282204374146224  0.24798816433082302  1.0000
  H   H16       1.0  0.7912703574141186  0.6975463598310281  0.825854098027492  1.0000
  H   H17       1.0  0.8747507786451038  0.552006352021011  0.7144113528677147  1.0000
  H   H18       1.0  0.022380715523533164  0.3402094399144316  0.655741715489397  1.0000
  H   H19       1.0  0.7904544136526657  0.7328901226355367  0.22141100118791268  1.0000
  H   H20       1.0  0.7602882770589527  0.8024807219654521  0.04566132547586399  1.0000
  H   H21       1.0  0.6634866418282684  0.6192579041456077  0.01683056541243322  1.0000
  H   H22       1.0  0.6928857379317563  0.5493371925117072  0.19481100680196084  1.0000
  H   H23       1.0  0.581230905047104  0.6815353238588892  0.1891245855648067  1.0000
  H   H24       1.0  0.6534226328833299  0.7348243181449972  0.29839155757626945  1.0000
  Zn  Zn1       1.0  0.8313441783322514  0.44815543336537833  0.48565067601254525  1.0000
  Zn  Zn2       1.0  0.9995321166569667  0.4555839445093235  0.5008912689142742  1.0000
  C   C30       1.0  0.9165020742264818  0.44831851090645486  0.7566235815284652  1.0000
  C   C31       1.0  0.9143760582693811  0.4554225871781339  0.22991867157554702  1.0000
  C   C32       1.0  0.91546220778168  0.688968876033502  0.48755825867352676  1.0000
  C   C33       1.0  0.9154158673210425  0.21477066006752696  0.4989840658879512  1.0000
  O   O1        1.0  0.9784184199009511  0.4603028357578292  0.2894243573186086  1.0000
  O   O2        1.0  0.9801104643076614  0.44907534836289975  0.7086847379452834  1.0000
  O   O3        1.0  0.9792699046433492  0.6434035328673002  0.49141250827670846  1.0000
  O   O4        1.0  0.979258921739585  0.26597465734114106  0.5066964736748227  1.0000
  O   O5        1.0  0.8516173158553138  0.637764717999941  0.47984546604354666  1.0000
  O   O6        1.0  0.8524578755184463  0.44343809294548003  0.6971176190462047  1.0000
  O   O7        1.0  0.8507658241562238  0.45466552442814434  0.27785550482721555  1.0000
  O   O8        1.0  0.8516063264262161  0.2603373373901243  0.4951277292873401  1.0000
