data_image0
_chemical_formula_structural       NC9NC5H8C8NH7C6NCOCH9Zn2C4O8
_chemical_formula_sum              "N4 C34 H24 O9 Zn2"
_cell_length_a       17.807436237873137
_cell_length_b       9.27426342843186
_cell_length_c       10.300272075376752
_cell_angle_alpha    85.50073118393561
_cell_angle_beta     89.39000598542044
_cell_angle_gamma    89.00683889979415

_space_group_name_H-M_alt    "P 1"
_space_group_IT_number       1

loop_
  _space_group_symop_operation_xyz
  'x, y, z'

loop_
  _atom_site_type_symbol
  _atom_site_label
  _atom_site_symmetry_multiplicity
  _atom_site_fract_x
  _atom_site_fract_y
  _atom_site_fract_z
  _atom_site_occupancy
  N   N1        1.0  0.7160867288895401  0.5414747203251702  0.5560783893713188  1.0000
  C   C1        1.0  0.6552801154737997  0.5024056666638343  0.5450830582109871  1.0000
  C   C2        1.0  0.5796433716443096  0.45380806642504345  0.5314060600643624  1.0000
  C   C3        1.0  0.561108910385329  0.37455243110083103  0.42646458099669116  1.0000
  C   C4        1.0  0.4876688486444741  0.32724413723097623  0.4131025609519754  1.0000
  C   C5        1.0  0.4317121776148919  0.35877229654612025  0.5046498715326868  1.0000
  C   C6        1.0  0.3536650380171251  0.3086233313091489  0.49053148379807926  1.0000
  C   C7        1.0  0.291997675371108  0.39939219815961735  0.5164039681172239  1.0000
  C   C8        1.0  0.21841404323243038  0.35185845305211605  0.5030557909966815  1.0000
  C   C9        1.0  0.1557133557258944  0.44561555448746965  0.5292900113275676  1.0000
  N   N2        1.0  0.1053149548689699  0.5209897771242973  0.5503816026874568  1.0000
  C   C10       1.0  0.2059126217076702  0.21326939969868566  0.4638099871258241  1.0000
  C   C11       1.0  0.2667225283669674  0.12248515504998127  0.43792912452580746  1.0000
  C   C12       1.0  0.3401842736838564  0.16958089558841305  0.451075086962305  1.0000
  C   C13       1.0  0.4509411199509836  0.4385767722505621  0.6098101760349173  1.0000
  C   C14       1.0  0.5244328694991918  0.4856737200509527  0.6230167038705738  1.0000
  H   H1        1.0  0.6033650706684521  0.34961366248284054  0.3547727102740752  1.0000
  H   H2        1.0  0.47442333753963417  0.2676697085070466  0.3302283913005226  1.0000
  H   H3        1.0  0.3011019658131888  0.5076022725506013  0.5452018848730624  1.0000
  H   H4        1.0  0.1492356950183554  0.17548118586847483  0.4532427554344469  1.0000
  H   H5        1.0  0.2569250266643148  0.015186156607540646  0.4079301892033642  1.0000
  H   H6        1.0  0.3864157645142368  0.09658751787622656  0.4320800411705603  1.0000
  H   H7        1.0  0.4093984562216909  0.4629164957455232  0.682796923834325  1.0000
  H   H8        1.0  0.5382143562478486  0.5466038475447006  0.7048483127325695  1.0000
  C   C15       1.0  0.9083277646499164  0.10777360417580129  0.5535407218105555  1.0000
  C   C16       1.0  0.8986237083724401  0.191690703148963  0.43499934954067926  1.0000
  C   C17       1.0  0.8962860135224876  0.1269486403617477  0.3174245113218581  1.0000
  C   C18       1.0  0.9042050708085432  0.9767507551207871  0.31547392192577095  1.0000
  C   C19       1.0  0.9118935434668509  0.8914354454136005  0.43324874159214405  1.0000
  C   C20       1.0  0.9130810348844118  0.95467949350821  0.5529304647848619  1.0000
  C   C21       1.0  0.9005641643561325  0.9070043628315415  0.18882029385680044  1.0000
  C   C22       1.0  0.8226397081942801  0.872180491770386  0.1610987555285972  1.0000
  N   N3        1.0  0.7611355963181788  0.8446934035536203  0.13922732406348626  1.0000
  H   H9        1.0  0.9731321480896215  0.18251202313634105  0.8519930216285613  1.0000
  H   H10       1.0  0.8944719848378153  0.3085289423616251  0.4329331866294188  1.0000
  H   H11       1.0  0.8889999115924511  0.19429536408867354  0.22753475936240042  1.0000
  H   H12       1.0  0.9151364979556945  0.774775879177851  0.43149069687789376  1.0000
  H   H13       1.0  0.9537887243941645  0.654962209864764  0.7556719889801307  1.0000
  H   H14       1.0  0.9352633931555477  0.8060609000564731  0.1933380171225012  1.0000
  H   H15       1.0  0.9227463238711309  0.980681681708868  0.10768004889882166  1.0000
  C   C23       1.0  0.9107113802138319  0.531372643685323  0.17188265706873662  1.0000
  C   C24       1.0  0.8340381169634135  0.569530171383205  0.16954400405351455  1.0000
  C   C25       1.0  0.7956399189095613  0.5906939860636053  0.0509462425274434  1.0000
  C   C26       1.0  0.8340438630563191  0.5692010042886622  0.9344101709219936  1.0000
  C   C27       1.0  0.9106974367663685  0.531080359579257  0.934588542237925  1.0000
  C   C28       1.0  0.9486933531465404  0.5129015130469634  0.05383300513704503  1.0000
  N   N4        1.0  0.7168634555861172  0.6275515535174501  0.04709667888693714  1.0000
  C   C29       1.0  0.6800844184805267  0.7192800926127014  0.13502959805348747  1.0000
  O   O1        1.0  0.7177964174027638  0.7944441823263568  0.2066911886191474  1.0000
  C   C30       1.0  0.5964228682533773  0.7342924298370597  0.13513486653193918  1.0000
  H   H16       1.0  0.9396041849523765  0.5148022086462052  0.5003465991854819  1.0000
  H   H17       1.0  0.8038537836399878  0.5799764191620302  0.26012326761926846  1.0000
  H   H18       1.0  0.8038266367093028  0.5836058289876815  0.8434749991441781  1.0000
  H   H19       1.0  0.007833896258272906  0.4835105717875659  0.054825042928857926  1.0000
  H   H20       1.0  0.9394823535253745  0.5145374028034838  0.6074009507210052  1.0000
  H   H21       1.0  0.6852823811051871  0.5932415910488333  0.970625072095181  1.0000
  H   H22       1.0  0.5708791664458046  0.6278402781063076  0.12320175653357103  1.0000
  H   H23       1.0  0.5760608210957047  0.773893279522825  0.22845338377363267  1.0000
  H   H24       1.0  0.5788105355968958  0.8123099890478007  0.05348098321060291  1.0000
  Zn  Zn1       1.0  0.8284095641888776  0.5355593576085592  0.5544419330418549  1.0000
  Zn  Zn2       1.0  0.9929920352046793  0.5268933812395489  0.5520287436515181  1.0000
  C   C31       1.0  0.9106661354468306  0.5253910680917966  0.7904249368866753  1.0000
  C   C32       1.0  0.9107372713916178  0.537063395540126  0.31604583960475563  1.0000
  C   C33       1.0  0.912178790404288  0.7945984033809532  0.5478709031035998  1.0000
  C   C34       1.0  0.909224550548705  0.2678543306771013  0.5585999446954442  1.0000
  O   O2        1.0  0.9732041154206486  0.5356782799417852  0.36351253234687597  1.0000
  O   O3        1.0  0.9731135726409255  0.5201978204373525  0.7411263161882267  1.0000
  O   O4        1.0  0.9743342186582027  0.7375861920905467  0.545262229063417  1.0000
  O   O5        1.0  0.9719834133022014  0.31828992159854086  0.5593765229171248  1.0000
  O   O6        1.0  0.8494181299274444  0.7441628202084116  0.5470941545929195  1.0000
  O   O7        1.0  0.8481974936317113  0.5267761810879301  0.7429581712267874  1.0000
  O   O8        1.0  0.8482880362079431  0.5422565909373513  0.36534282608568613  1.0000
  O   O9        1.0  0.8470673340267546  0.3248682222430017  0.5612069140271672  1.0000
