data_image0
_chemical_formula_structural       NC9NC5H8C6NH7C7H8Zn2C4O8
_chemical_formula_sum              "N3 C31 H23 Zn2 O8"
_cell_length_a       17.807436237873137
_cell_length_b       9.274771166103582
_cell_length_c       9.274345330872308
_cell_angle_alpha    85.0234395888617
_cell_angle_beta     88.93938532988027
_cell_angle_gamma    88.98784114054227

_space_group_name_H-M_alt    "P 1"
_space_group_IT_number       1

loop_
  _space_group_symop_operation_xyz
  'x, y, z'

loop_
  _atom_site_type_symbol
  _atom_site_label
  _atom_site_symmetry_multiplicity
  _atom_site_fract_x
  _atom_site_fract_y
  _atom_site_fract_z
  _atom_site_occupancy
  N   N1        1.0  0.7223100220294058  0.5529349549969176  0.3934813003846751  1.0000
  C   C1        1.0  0.6615590652015829  0.5139507239099637  0.38130524141231603  1.0000
  C   C2        1.0  0.5859915521146948  0.465458633747021  0.36615954599641426  1.0000
  C   C3        1.0  0.5679405120450646  0.3870266971706662  0.249617056626114  1.0000
  C   C4        1.0  0.49456805899966494  0.3398214916940492  0.2348199707668965  1.0000
  C   C5        1.0  0.4381957878245759  0.37062927397950385  0.33653011831886714  1.0000
  C   C6        1.0  0.36022011044634805  0.32058922470027795  0.32089561571249914  1.0000
  C   C7        1.0  0.2984219745835399  0.41115844444950816  0.3495477169416208  1.0000
  C   C8        1.0  0.2249059257557366  0.3637276677229442  0.33476627098195755  1.0000
  C   C9        1.0  0.1620723569066863  0.4572824134589251  0.36381702803946303  1.0000
  N   N2        1.0  0.11156712374212698  0.5324939474927843  0.3871730418527559  1.0000
  C   C10       1.0  0.212603020096141  0.22544141432150266  0.29130510426848666  1.0000
  C   C11       1.0  0.2735437400399887  0.13485688210049315  0.26264370879177434  1.0000
  C   C12       1.0  0.3469388799821621  0.18185122773148946  0.27720090824984056  1.0000
  C   C13       1.0  0.4569402385236674  0.44960835181484904  0.45331519010588406  1.0000
  C   C14       1.0  0.530365110943936  0.4966034271783948  0.4679397006546583  1.0000
  H   H1        1.0  0.61052217458153  0.3626520530537971  0.1699668192841896  1.0000
  H   H2        1.0  0.481703823690987  0.280897697818572  0.142780866603194  1.0000
  H   H3        1.0  0.3073795372255745  0.5191466429764793  0.38143143109041544  1.0000
  H   H4        1.0  0.1559796221234417  0.1877347089586343  0.2796033876432542  1.0000
  H   H5        1.0  0.2638982028986492  0.02778927399854391  0.22942415129385152  1.0000
  H   H6        1.0  0.3932674154646745  0.109004120967626  0.25617230624730847  1.0000
  H   H7        1.0  0.415066364176688  0.47337371123478245  0.5344052325250555  1.0000
  H   H8        1.0  0.5437697758373276  0.5568912061897189  0.5588185690118557  1.0000
  C   C15       1.0  0.9146330028517162  0.1192329694642509  0.3911512036006839  1.0000
  C   C16       1.0  0.8978720159000924  0.2044095927395817  0.26236233708186507  1.0000
  C   C17       1.0  0.8881271199796638  0.1408659110568229  0.132640936515529  1.0000
  C   C18       1.0  0.8951863989244784  0.9907730646144373  0.1307669744959514  1.0000
  C   C19       1.0  0.9105656491251162  0.9043631402685278  0.2578053193177514  1.0000
  C   C20       1.0  0.9192512164935858  0.966184437602791  0.38951560296063237  1.0000
  N   N3        1.0  0.8718333530483078  0.2291283527537009  0.002426048752942167  1.0000
  H   H9        1.0  0.9978838811052424  0.19210433040495475  0.7056527865796849  1.0000
  H   H10       1.0  0.8940871021592961  0.3212052998094861  0.26186929659079783  1.0000
  H   H11       1.0  0.888044178881822  0.9404256612727304  0.030953683327054064  1.0000
  H   H12       1.0  0.913892512179604  0.7880560543789088  0.2536181183394135  1.0000
  H   H13       1.0  0.9722710230980152  0.6646893424904425  0.6035467034457023  1.0000
  H   H14       1.0  0.8666585285507212  0.34147435709305074  0.0024630355777943698  1.0000
  H   H15       1.0  0.8647522281894516  0.182776784867271  0.90498520100049  1.0000
  C   C21       1.0  0.9186589336244853  0.545861961594782  0.9664971340331737  1.0000
  C   C22       1.0  0.8744905112254253  0.6497884893520753  0.03228530134546513  1.0000
  C   C23       1.0  0.8257683711695872  0.7423535538604056  0.9508754418383862  1.0000
  C   C24       1.0  0.8194820144555769  0.7320719813541545  0.8020526588732667  1.0000
  C   C25       1.0  0.8648371832133717  0.6321389517706151  0.7342335013668736  1.0000
  C   C26       1.0  0.9152252518132519  0.5395554231333862  0.8141696071158456  1.0000
  C   C27       1.0  0.7682554187410405  0.833856509317521  0.7141714593138435  1.0000
  H   H16       1.0  0.0031741552971682437  0.22722772523465418  0.09404279015930016  1.0000
  H   H17       1.0  0.8764451904924868  0.6574265809415508  0.14805635612799817  1.0000
  H   H18       1.0  0.7922846020666041  0.8211675985914364  0.004438323144637654  1.0000
  H   H19       1.0  0.8619757342841339  0.6290003459509081  0.6178938743456682  1.0000
  H   H20       1.0  0.9748769657995824  0.3278768970575088  0.5496916935696192  1.0000
  H   H21       1.0  0.7994749943227395  0.9323717388080406  0.6743569967926841  1.0000
  H   H22       1.0  0.7191253953224274  0.8658200406380183  0.7804884415973774  1.0000
  H   H23       1.0  0.7468634937481342  0.7816718487743612  0.6200147318099072  1.0000
  Zn  Zn1       1.0  0.8346411571810244  0.547032211742319  0.39166922782608293  1.0000
  Zn  Zn2       1.0  0.9992358582321361  0.5383848473263936  0.3889970026190388  1.0000
  C   C28       1.0  0.9158413070373672  0.5350025923022994  0.6539525087687265  1.0000
  C   C29       1.0  0.9180375150925834  0.5504161908463097  0.12671383064232122  1.0000
  C   C30       1.0  0.9183976979921515  0.8061355444563191  0.384073351270377  1.0000
  C   C31       1.0  0.9154810582140387  0.2792815084728577  0.3965930693472026  1.0000
  O   O1        1.0  0.9802917583077391  0.5486567106806226  0.17946993423218877  1.0000
  O   O2        1.0  0.9785106292087595  0.5301978381462269  0.5991678347030964  1.0000
  O   O3        1.0  0.980574099126798  0.7491411590273476  0.38123851635828643  1.0000
  O   O4        1.0  0.9782282327192865  0.32971340387147263  0.3973991452511005  1.0000
  O   O5        1.0  0.8556487265258198  0.7557036581497873  0.38326708609832527  1.0000
  O   O6        1.0  0.853585266363487  0.5367620704406451  0.6011963241409082  1.0000
  O   O7        1.0  0.8553664022674472  0.555220905629245  0.18149668849576406  1.0000
  O   O8        1.0  0.8533028761813547  0.3362775877006716  0.3994260077448788  1.0000
