data_image0
_chemical_formula_structural       NC8NH4C10H6C8H10Zn2C4O8
_chemical_formula_sum              "N2 C30 H20 Zn2 O8"
_cell_length_a       13.859017124695912
_cell_length_b       9.275150299802176
_cell_length_c       9.275657083861812
_cell_angle_alpha    85.52524859498646
_cell_angle_beta     89.50282398356396
_cell_angle_gamma    89.4839206584006

_space_group_name_H-M_alt    "P 1"
_space_group_IT_number       1

loop_
  _space_group_symop_operation_xyz
  'x, y, z'

loop_
  _atom_site_type_symbol
  _atom_site_label
  _atom_site_symmetry_multiplicity
  _atom_site_fract_x
  _atom_site_fract_y
  _atom_site_fract_z
  _atom_site_occupancy
  N   N1        1.0  0.9084065142609693  0.5708512745122105  0.40100587711949687  1.0000
  C   C1        1.0  0.8365170541451777  0.5476929040832001  0.34496712322078227  1.0000
  C   C2        1.0  0.7470907994664517  0.5188872750391028  0.2752621132004218  1.0000
  C   C3        1.0  0.6589116797573724  0.5469698406628525  0.34321572405011236  1.0000
  C   C4        1.0  0.5718604756366367  0.5188884984578317  0.27526152689345573  1.0000
  C   C5        1.0  0.5731709672163637  0.46271697991709004  0.1393328543033059  1.0000
  C   C6        1.0  0.6611653569310714  0.43474235018266266  0.07164081600544003  1.0000
  C   C7        1.0  0.7480363333028893  0.4627146354181284  0.13933404609088051  1.0000
  C   C8        1.0  0.4812772127773761  0.5476938285098398  0.3449666199016366  1.0000
  N   N2        1.0  0.4084576391755008  0.5708515961627673  0.40100565925998  1.0000
  H   H1        1.0  0.6580385259002303  0.590448779976595  0.4484277684543647  1.0000
  H   H2        1.0  0.5063194064301928  0.4406149414784577  0.08584591231215088  1.0000
  H   H3        1.0  0.662036804029632  0.391352214319636  0.9666418395011878  1.0000
  H   H4        1.0  0.8157756370282322  0.44061050040599  0.0858481153376176  1.0000
  C   C9        1.0  0.16096850015363096  0.1471583020425638  0.40341905412294254  1.0000
  C   C10       1.0  0.2123474034380144  0.2286507908207314  0.2943603416471161  1.0000
  C   C11       1.0  0.25548369393219095  0.16191321292262553  0.17975941201024837  1.0000
  C   C12       1.0  0.24768062561964999  0.012709681252616404  0.1727410827435527  1.0000
  C   C13       1.0  0.19841204955089098  0.9297700289123393  0.28115193030676444  1.0000
  C   C14       1.0  0.15590484756065304  0.9945335300348725  0.39860503612732257  1.0000
  C   C15       1.0  0.30688887137882337  0.2471350439798528  0.06820718353053157  1.0000
  C   C16       1.0  0.3499279672828062  0.3185108226939246  0.974814717692151  1.0000
  C   C17       1.0  0.4003247528906475  0.40209682218929244  0.8654562132418344  1.0000
  C   C18       1.0  0.4433555509113032  0.47346721061159713  0.7720816500827206  1.0000
  H   H5        1.0  0.11387858221209114  0.4106566566258474  0.6323290875923144  1.0000
  H   H6        1.0  0.21697042511828446  0.3451105854810912  0.2965872789669557  1.0000
  H   H7        1.0  0.28054292813142867  0.9601095288991647  0.08406404178058935  1.0000
  H   H8        1.0  0.1954975173381368  0.8137380318840567  0.2749283619566012  1.0000
  H   H9        1.0  0.09120789058680656  0.8658201044543227  0.7411038367572582  1.0000
  H   H10       1.0  0.48114018068215003  0.536136471498506  0.6900910713815587  1.0000
  C   C19       1.0  0.16090749162418042  0.568670923605475  0.977704518621033  1.0000
  C   C20       1.0  0.2102325168121646  0.6786558936634137  0.042020041989369254  1.0000
  C   C21       1.0  0.2510007159784071  0.7948161123714439  0.9576215201478919  1.0000
  C   C22       1.0  0.2438818191254717  0.800007024470125  0.8069531462878898  1.0000
  C   C23       1.0  0.1966369625032367  0.6906680403030185  0.741181348334925  1.0000
  C   C24       1.0  0.1559658816048528  0.5730209197573382  0.8243195942583799  1.0000
  C   C25       1.0  0.3047525656343788  0.9105167950492911  0.028164088182090825  1.0000
  C   C26       1.0  0.41098311595007364  0.8693459943536859  0.04624255565038627  1.0000
  H   H11       1.0  0.11897171141137797  0.3384985299204327  0.2768392243162605  1.0000
  H   H12       1.0  0.2152373914863368  0.6759809686269782  0.1587602624706843  1.0000
  H   H13       1.0  0.27588405563669505  0.8881910516810477  0.7400659183585816  1.0000
  H   H14       1.0  0.19412035158133523  0.6962907605554167  0.6241750856969874  1.0000
  H   H15       1.0  0.04303415240342989  0.4067357017489463  0.5574299302562942  1.0000
  H   H16       1.0  0.29884240291387454  0.01526055455476305  0.9617287203000431  1.0000
  H   H17       1.0  0.27256235136071627  0.9268573494287082  0.13594776310521883  1.0000
  H   H18       1.0  0.41846540706683966  0.7667063138303823  0.11557384600583265  1.0000
  H   H19       1.0  0.44501815390744515  0.85606713890707  0.9391431678242883  1.0000
  H   H20       1.0  0.4492683359285585  0.9559563605785715  0.0983171050522682  1.0000
  Zn  Zn1       1.0  0.05271044462591344  0.5708475579924721  0.4010141649573169  1.0000
  Zn  Zn2       1.0  0.26415370249648173  0.570843603788901  0.4010092613143661  1.0000
  C   C27       1.0  0.15693214854439552  0.5664508374697307  0.664323848007847  1.0000
  C   C28       1.0  0.15993429582745344  0.5752421454687333  0.13769970935175735  1.0000
  C   C29       1.0  0.15689057227331782  0.8343320814454909  0.3937707056617201  1.0000
  C   C30       1.0  0.1599758098577322  0.30735916842450384  0.4082529384002491  1.0000
  O   O1        1.0  0.23984933445780876  0.5774397124308007  0.19139373178798147  1.0000
  O   O2        1.0  0.23749765910012677  0.564249178774604  0.6106256950463269  1.0000
  O   O3        1.0  0.23746299529127343  0.7805666788274044  0.39215210989565974  1.0000
  O   O4        1.0  0.23988392668459335  0.36112222214525574  0.40986720879886107  1.0000
  O   O5        1.0  0.07698014828263021  0.7805689396389988  0.39215621746690377  1.0000
  O   O6        1.0  0.07701480217710999  0.5642531726575486  0.610629715909289  1.0000
  O   O7        1.0  0.07936648801537394  0.5774436471303694  0.19139601983083132  1.0000
  O   O8        1.0  0.07940107966905519  0.3611261470804498  0.4098696049755812  1.0000
