data_image0
_chemical_formula_structural       NC6NC3H6C9H10C7NH4Zn2C4O8
_chemical_formula_sum              "N3 C29 H20 Zn2 O8"
_cell_length_a       14.934028789175542
_cell_length_b       10.297183801781406
_cell_length_c       9.275157849593906
_cell_angle_alpha    86.08426286032497
_cell_angle_beta     89.71635168279133
_cell_angle_gamma    89.9601079490019

_space_group_name_H-M_alt    "P 1"
_space_group_IT_number       1

loop_
  _space_group_symop_operation_xyz
  'x, y, z'

loop_
  _atom_site_type_symbol
  _atom_site_label
  _atom_site_symmetry_multiplicity
  _atom_site_fract_x
  _atom_site_fract_y
  _atom_site_fract_z
  _atom_site_occupancy
  N   N1        1.0  0.8476146478123588  0.4071121502637589  0.4091327195878973  1.0000
  C   C1        1.0  0.7701305088728789  0.4061170654256745  0.40845455682603893  1.0000
  C   C2        1.0  0.6737363429587936  0.40487460632063965  0.4076079969062282  1.0000
  C   C3        1.0  0.625789412337639  0.5016372231955641  0.4734316710911261  1.0000
  C   C4        1.0  0.5322795883155069  0.5006396238632718  0.4727529158658592  1.0000
  C   C5        1.0  0.4858040512179852  0.40292879003544735  0.40628427857775756  1.0000
  C   C6        1.0  0.38915428556608905  0.4050252858710222  0.4077117245158781  1.0000
  N   N2        1.0  0.3116709923103751  0.40668912248329653  0.40884491109738547  1.0000
  C   C7        1.0  0.5337479633596118  0.3048274787075511  0.339549393487861  1.0000
  C   C8        1.0  0.485634123565963  0.19859550219226807  0.26728539865585255  1.0000
  C   C9        1.0  0.627886916152819  0.3068430315570152  0.340920544215628  1.0000
  H   H1        1.0  0.6606884218338738  0.5778771947307593  0.5252952098061818  1.0000
  H   H2        1.0  0.49609977177048575  0.5762924358230159  0.5242168904726596  1.0000
  H   H3        1.0  0.4431320697441403  0.24202819926334707  0.17867863578216925  1.0000
  H   H4        1.0  0.4426660100491683  0.14268032733092273  0.3474074669933733  1.0000
  H   H5        1.0  0.5332240837160652  0.12978745750633913  0.22047166545903638  1.0000
  H   H6        1.0  0.6655578742386957  0.23219662998758106  0.29014147912430904  1.0000
  C   C10       1.0  0.07964968365217778  0.02542683231735544  0.40919299912677964  1.0000
  C   C11       1.0  0.07746509123166812  0.03397300028273121  0.25754518679304006  1.0000
  C   C12       1.0  0.07634565353174484  0.9217349648442659  0.17985157801164098  1.0000
  C   C13       1.0  0.07745625143398377  0.7987968156376538  0.2569574225586746  1.0000
  C   C14       1.0  0.07964454097175785  0.7883645280172725  0.4087970466354287  1.0000
  C   C15       1.0  0.08072612233105356  0.9021470783561163  0.4839236610835682  1.0000
  C   C16       1.0  0.07398261482350205  0.9404104439913382  0.01583376104522949  1.0000
  C   C17       1.0  0.02177598196211727  0.8410450528871293  0.9356428467016012  1.0000
  C   C18       1.0  0.12380239410013044  0.8412205332835122  0.9310014994539423  1.0000
  H   H7        1.0  0.08049997964466482  0.34967216591809264  0.46762776007447027  1.0000
  H   H8        1.0  0.07662190606477681  0.12869465779357125  0.1990007644670526  1.0000
  H   H9        1.0  0.07663430898990443  0.7107039919329959  0.2000387688605927  1.0000
  H   H10       1.0  0.08241113245144754  0.8948260878510741  0.6009231330727973  1.0000
  H   H11       1.0  0.08376570897564801  0.5614444351062208  0.6955793493173431  1.0000
  H   H12       1.0  0.07322391472203149  0.04066927846173752  0.9631155508206533  1.0000
  H   H13       1.0  0.9917118446154194  0.7580039963286918  0.0012449923441599786  1.0000
  H   H14       1.0  0.9904718196857624  0.8810618761469251  0.8337006602759289  1.0000
  H   H15       1.0  0.15571382117640709  0.758286877885798  0.9937850282027644  1.0000
  H   H16       1.0  0.15212818346688273  0.8813375382442314  0.8263453201427846  1.0000
  C   C19       1.0  0.08083528936173032  0.40322267559721064  0.9857984361508548  1.0000
  C   C20       1.0  0.15801416265938162  0.4455009612726666  0.055424622289448326  1.0000
  C   C21       1.0  0.23059963457129942  0.4979982634438591  0.9754741590957212  1.0000
  C   C22       1.0  0.22685241637142983  0.5090521591125579  0.8248118015130785  1.0000
  C   C23       1.0  0.15151451747167843  0.46572027045064895  0.7538434775717371  1.0000
  C   C24       1.0  0.07845894431850176  0.4105686475323105  0.8321916695473002  1.0000
  C   C25       1.0  0.3086561247501203  0.5420848375465037  0.048406454217647894  1.0000
  N   N3        1.0  0.3713935562856545  0.577518554573528  0.10703172260077687  1.0000
  H   H17       1.0  0.8629664162568367  0.3596214996385659  0.09379390536977472  1.0000
  H   H18       1.0  0.282610852211523  0.5500920169274939  0.7619330975733898  1.0000
  H   H19       1.0  0.1513163801166113  0.47255010460662766  0.6367756164620659  1.0000
  H   H20       1.0  0.9327074684072257  0.3757574822331824  0.5548937022131417  1.0000
  Zn  Zn1       1.0  0.9815312748549431  0.40698666470903616  0.4090579818426694  1.0000
  Zn  Zn2       1.0  0.17775436232482889  0.40680406924058105  0.4089314366065573  1.0000
  C   C26       1.0  0.07890614037204902  0.4040050284912307  0.6722078869048012  1.0000
  C   C27       1.0  0.08038163914952288  0.4097873437624997  0.14578167075865256  1.0000
  C   C28       1.0  0.07965701494875563  0.6441032219062794  0.4031291440353768  1.0000
  C   C29       1.0  0.07963069741042544  0.1696875903447448  0.4148604913137603  1.0000
  O   O1        1.0  0.15469502910208444  0.41191554503887795  0.1994254854413362  1.0000
  O   O2        1.0  0.15352153468732177  0.40173725788666903  0.6184676129758999  1.0000
  O   O3        1.0  0.15412686736446668  0.5956195994651767  0.4011846242785237  1.0000
  O   O4        1.0  0.15408962977060725  0.21803321187763053  0.4167083661225679  1.0000
  O   O5        1.0  0.005195940447876525  0.5957575221356457  0.4012810523622614  1.0000
  O   O6        1.0  0.004590607971833858  0.40187674062350276  0.618563963409557  1.0000
  O   O7        1.0  0.005764107311123864  0.41205496746923154  0.19952010324683722  1.0000
  O   O8        1.0  0.00515870767269044  0.2181726259543828  0.41680309197981624  1.0000
