data_image0
_chemical_formula_structural       NC9NC3NH7C7NC2NH8C12H10Zn2C4O8
_chemical_formula_sum              "N5 C37 H25 Zn2 O8"
_cell_length_a       16.053384444249904
_cell_length_b       9.273995741505848
_cell_length_c       10.299141136925906
_cell_angle_alpha    85.68706710251877
_cell_angle_beta     89.82059794555093
_cell_angle_gamma    89.75855226915094

_space_group_name_H-M_alt    "P 1"
_space_group_IT_number       1

loop_
  _space_group_symop_operation_xyz
  'x, y, z'

loop_
  _atom_site_type_symbol
  _atom_site_label
  _atom_site_symmetry_multiplicity
  _atom_site_fract_x
  _atom_site_fract_y
  _atom_site_fract_z
  _atom_site_occupancy
  N   N1        1.0  0.7932699940227584  0.55924405248997  0.5679450909344783  1.0000
  C   C1        1.0  0.7423643715684191  0.536160801905124  0.4930432979094231  1.0000
  C   C2        1.0  0.6791026350817925  0.5074796061773896  0.3999969979595207  1.0000
  C   C3        1.0  0.6926153949839133  0.49411187598426126  0.2692295526674143  1.0000
  C   C4        1.0  0.6158156159411762  0.46600846550640873  0.21691138477604754  1.0000
  C   C5        1.0  0.5587272811791077  0.4637946678427589  0.31858154093870406  1.0000
  C   C6        1.0  0.46791732010502796  0.43734959401398077  0.308275336073558  1.0000
  C   C7        1.0  0.4123186566975862  0.48474253756420976  0.4022913309161962  1.0000
  C   C8        1.0  0.3266207013500702  0.45966188137775577  0.3924204896319062  1.0000
  C   C9        1.0  0.2702538246953128  0.5089913422340162  0.488812796853849  1.0000
  N   N2        1.0  0.2249514749346853  0.5486452729791551  0.5662971181581944  1.0000
  C   C10       1.0  0.2957946511061929  0.38706394376798237  0.28854708639456805  1.0000
  C   C11       1.0  0.3503855850103554  0.3398037372745244  0.19474306402571667  1.0000
  C   C12       1.0  0.4358764148957648  0.3647005186765313  0.2042168982467536  1.0000
  N   N3        1.0  0.5980877362744073  0.4892644236480463  0.43019715146784177  1.0000
  H   H1        1.0  0.7513961139861812  0.5037157366650683  0.21763325714974235  1.0000
  H   H2        1.0  0.6034454981499615  0.4507485867463576  0.1156985211879973  1.0000
  H   H3        1.0  0.43499453123026666  0.5429607377849817  0.48222245258912394  1.0000
  H   H4        1.0  0.22965343410721  0.3671186224464722  0.28006971665525393  1.0000
  H   H5        1.0  0.3264300471575471  0.2834084227788274  0.11458215381279603  1.0000
  H   H6        1.0  0.4767498683211083  0.325371015221251  0.13087878522381005  1.0000
  H   H7        1.0  0.5719574027157506  0.49186350883374796  0.5229652979659772  1.0000
  C   C13       1.0  0.006623332880034915  0.13051706047875244  0.5661818365261306  1.0000
  C   C14       1.0  0.021220862188502387  0.21343095699486891  0.44867347351040876  1.0000
  C   C15       1.0  0.04327292817974193  0.147809674844388  0.33600801894077087  1.0000
  C   C16       1.0  0.051647692318279814  0.9971574736498287  0.3376316011358944  1.0000
  C   C17       1.0  0.03530080374872147  0.9130092614773901  0.4540707559112061  1.0000
  C   C18       1.0  0.011606027099438476  0.9773609591625962  0.5680715037912077  1.0000
  C   C19       1.0  0.07603405499925686  0.9295984383563265  0.21684925584758633  1.0000
  N   N4        1.0  0.07904072312165789  0.0038454026800096622  0.09882352964892283  1.0000
  C   C20       1.0  0.10400649065045324  0.9053700323528738  0.01704585347056509  1.0000
  C   C21       1.0  0.11590800155342662  0.7741422078041259  0.08594733439775837  1.0000
  N   N5        1.0  0.0983519546278715  0.7895335335188416  0.21158785031839236  1.0000
  H   H8        1.0  0.9391172862990415  0.39671880079700206  0.7533574738364277  1.0000
  H   H9        1.0  0.017595506987216233  0.3303651319601436  0.4444984692859429  1.0000
  H   H10       1.0  0.05500836267238186  0.21574857205759687  0.2477368101698161  1.0000
  H   H11       1.0  0.03812178022785396  0.796377345325699  0.4558598198376822  1.0000
  H   H12       1.0  0.01274647350491564  0.6792358846753778  0.7840448468487  1.0000
  H   H13       1.0  0.11319795947819289  0.9281977836862001  0.9134635747735045  1.0000
  H   H14       1.0  0.1363566912523313  0.6745404773114401  0.0473684052585075  1.0000
  H   H15       1.0  0.102896727887408  0.7088579001726927  0.28748720219650603  1.0000
  C   C22       1.0  0.00902072547186372  0.5540644187803292  0.18573431992569758  1.0000
  C   C23       1.0  0.09611765938016337  0.5674572704624145  0.18362156786421016  1.0000
  C   C24       1.0  0.14037601325482507  0.57411915230218  0.0654159466662374  1.0000
  C   C25       1.0  0.09636015008284372  0.5672074514742673  0.9483543879595662  1.0000
  C   C26       1.0  0.009208658166876663  0.5538136477239906  0.9485190760642177  1.0000
  C   C27       1.0  0.9660755612685775  0.5473222259606575  0.06765308112068436  1.0000
  C   C28       1.0  0.23251581669473453  0.5882892582444619  0.06422563523597447  1.0000
  C   C29       1.0  0.28162403450808515  0.5082242636520393  0.9816370587137548  1.0000
  C   C30       1.0  0.3683451158980484  0.5217414100201034  0.9807550348012459  1.0000
  C   C31       1.0  0.40695758859881037  0.6151122125456374  0.06197827963832815  1.0000
  C   C32       1.0  0.35892711212865414  0.6951603121476878  0.14431808249520306  1.0000
  C   C33       1.0  0.27218633053989016  0.6820052143067854  0.14567081284103178  1.0000
  H   H16       1.0  0.9755136110519554  0.5489861619316696  0.5140178301880642  1.0000
  H   H17       1.0  0.12984722824781425  0.5707458951626145  0.274254467620112  1.0000
  H   H18       1.0  0.1300474359472588  0.5742772012872752  0.856817745599448  1.0000
  H   H19       1.0  0.8988955086319446  0.5369960249980281  0.06856679056623662  1.0000
  H   H20       1.0  0.8446660273955022  0.529449580046673  0.7414768670100266  1.0000
  H   H21       1.0  0.2530642680729487  0.4338622064601256  0.9190655597107211  1.0000
  H   H22       1.0  0.4056507553438733  0.45946226342288626  0.9172457136749134  1.0000
  H   H23       1.0  0.4740930261315459  0.625435081131358  0.06111352338366684  1.0000
  H   H24       1.0  0.3889074342464362  0.7677853222022253  0.20696053332568365  1.0000
  H   H25       1.0  0.23609462903452696  0.7464256415095973  0.20907626727241183  1.0000
  Zn  Zn1       1.0  0.9178439215307186  0.5561816257096736  0.5674770063071493  1.0000
  Zn  Zn2       1.0  0.10037745746295502  0.5516959490279864  0.5667757914727813  1.0000
  C   C34       1.0  0.009137456900603077  0.5481168503659134  0.804323588436224  1.0000
  C   C35       1.0  0.009085926089664518  0.5597624946782631  0.32992933322050555  1.0000
  C   C36       1.0  0.01065862835737419  0.8172912853471415  0.5625388637508556  1.0000
  C   C37       1.0  0.007564682170982051  0.29058632882710267  0.5717141235223158  1.0000
  O   O1        1.0  0.07837829660463694  0.5599662395009921  0.3780563755075933  1.0000
  O   O2        1.0  0.07838381012731688  0.5445074930867047  0.7556639640185299  1.0000
  O   O3        1.0  0.07961124184935885  0.7618692760131255  0.560421095100928  1.0000
  O   O4        1.0  0.07715080263296509  0.3426044684520204  0.5732991473068343  1.0000
  O   O5        1.0  0.941070514070979  0.7652731078179533  0.5609536507055585  1.0000
  O   O6        1.0  0.9398430925211182  0.5479130572937767  0.7561964542391807  1.0000
  O   O7        1.0  0.9398375783735267  0.5633717539731045  0.37858730411921937  1.0000
  O   O8        1.0  0.9386100843617546  0.3460099725789967  0.5738301732692839  1.0000
