data_image0
_chemical_formula_structural       NC8NC6H8C9H10C8NH7Zn2C4O8
_chemical_formula_sum              "N3 C35 H25 Zn2 O8"
_cell_length_a       17.457602349358154
_cell_length_b       9.272676604525723
_cell_length_c       9.274266800404106
_cell_angle_alpha    86.24029602187467
_cell_angle_beta     92.41618932719734
_cell_angle_gamma    92.2282679722568

_space_group_name_H-M_alt    "P 1"
_space_group_IT_number       1

loop_
  _space_group_symop_operation_xyz
  'x, y, z'

loop_
  _atom_site_type_symbol
  _atom_site_label
  _atom_site_symmetry_multiplicity
  _atom_site_fract_x
  _atom_site_fract_y
  _atom_site_fract_z
  _atom_site_occupancy
  N   N1        1.0  0.7369721695458805  0.6026932019740433  0.48376271471757226  1.0000
  C   C1        1.0  0.6756820760063007  0.5515963167601361  0.47173732619060194  1.0000
  C   C2        1.0  0.5994346053231854  0.48803821553506027  0.4567883612346124  1.0000
  C   C3        1.0  0.5407907361031645  0.5332502879263428  0.5401099606882445  1.0000
  C   C4        1.0  0.4659905618314602  0.47204999179121243  0.5258541308036998  1.0000
  C   C5        1.0  0.4037482662044767  0.5197891995481232  0.6140941789249812  1.0000
  C   C6        1.0  0.3295621106545022  0.5398546545355911  0.5523181263561512  1.0000
  C   C7        1.0  0.2709166991625486  0.5848632993146399  0.6357585249406255  1.0000
  C   C8        1.0  0.19530598481145786  0.6055838936573943  0.5715274499765544  1.0000
  N   N2        1.0  0.1345278500558538  0.6222361664615561  0.5198857991061248  1.0000
  C   C9        1.0  0.28596433034086516  0.6100806476981373  0.7815405295321625  1.0000
  C   C10       1.0  0.3593662142990537  0.5904503769286784  0.8437487454367386  1.0000
  C   C11       1.0  0.41799894525468384  0.5456454081219599  0.7608171986353958  1.0000
  C   C12       1.0  0.4511256238647296  0.36487365696333063  0.42668310542870713  1.0000
  C   C13       1.0  0.5097575240262563  0.31997434514348  0.3438068427390023  1.0000
  C   C14       1.0  0.5837710498782218  0.38130388452977737  0.35867349809790183  1.0000
  H   H1        1.0  0.5532563915854473  0.6173082906563596  0.6144463616947791  1.0000
  H   H2        1.0  0.3175997702357187  0.5224060732739693  0.4390317428611288  1.0000
  H   H3        1.0  0.24100904691199942  0.644856812453374  0.8469902002416628  1.0000
  H   H4        1.0  0.37082540114745643  0.6096261316705499  0.9566293105406055  1.0000
  H   H5        1.0  0.4741880640666268  0.52936393621634  0.8118964407224539  1.0000
  H   H6        1.0  0.3944323228135621  0.31443145650261023  0.4146208029004803  1.0000
  H   H7        1.0  0.4978175121798898  0.2371468195241959  0.2681467726250917  1.0000
  H   H8        1.0  0.6287190949363809  0.3455658105584194  0.2937863080020846  1.0000
  C   C15       1.0  0.9335877223650563  0.1888560253351108  0.49978628393094215  1.0000
  C   C16       1.0  0.9023837987878449  0.25232496301098717  0.6163371384220799  1.0000
  C   C17       1.0  0.8781838731953293  0.1679288590719481  0.7370474931675131  1.0000
  C   C18       1.0  0.8844062354050382  0.017543435391408586  0.7452717915377436  1.0000
  C   C19       1.0  0.9143579201270939  0.9525548662849748  0.6274965204275964  1.0000
  C   C20       1.0  0.9379195456107726  0.036062647723070766  0.5038753231511157  1.0000
  C   C21       1.0  0.8573987374293414  0.933648268124443  0.8812931679240387  1.0000
  C   C22       1.0  0.8186877493844421  0.7855422046682784  0.8634230099357968  1.0000
  C   C23       1.0  0.8994362959207569  0.79741693407707  0.931754780303742  1.0000
  H   H9        1.0  0.9516057698049613  0.4867786475042064  0.26520376807823887  1.0000
  H   H10       1.0  0.8983366510387659  0.36864749192347124  0.6158308258460918  1.0000
  H   H11       1.0  0.8550814604241052  0.22092565642799733  0.8255228548079223  1.0000
  H   H12       1.0  0.9180119954887962  0.83634429098479  0.6291671472945597  1.0000
  H   H13       1.0  0.959293715543513  0.9576245533030615  0.15285042427058348  1.0000
  H   H14       1.0  0.8353054629491667  0.9933725565448083  0.9700479235877876  1.0000
  H   H15       1.0  0.815584998542836  0.7453071052969722  0.7532467069938918  1.0000
  H   H16       1.0  0.7738830794735907  0.7551873138428116  0.9425151436086279  1.0000
  H   H17       1.0  0.9453602507079149  0.7642660985102576  0.8631693388291068  1.0000
  H   H18       1.0  0.9018232137706995  0.7739962388484735  0.050802402955639425  1.0000
  C   C24       1.0  0.9375018228001465  0.6093920750766106  0.07866515740699143  1.0000
  C   C25       1.0  0.8923957211231993  0.5039352906224417  0.1552657331153573  1.0000
  C   C26       1.0  0.842705052936783  0.40946918433218027  0.08245217353019907  1.0000
  C   C27       1.0  0.8364726526896737  0.4189649512625737  0.9312307831208511  1.0000
  C   C28       1.0  0.8826142246640731  0.5210247950786007  0.8534029992856156  1.0000
  C   C29       1.0  0.934005396812391  0.6155266071614409  0.9249963914415442  1.0000
  C   C30       1.0  0.7837079859694109  0.3156435580056367  0.8529151582212298  1.0000
  C   C31       1.0  0.8245737088872767  0.18580610450650314  0.8248380074633426  1.0000
  N   N3        1.0  0.8568318300802455  0.08333465692315034  0.8026763527511633  1.0000
  H   H19       1.0  0.023629298880278423  0.9310270531565715  0.1673110537026145  1.0000
  H   H20       1.0  0.8943160338424686  0.49656064727087595  0.2724216541578046  1.0000
  H   H21       1.0  0.8084519469728145  0.32960217911928136  0.1442426976604929  1.0000
  H   H22       1.0  0.8796436472937689  0.5241693365600849  0.7362564446607636  1.0000
  H   H23       1.0  0.9947651999907988  0.8294084845020068  0.6350973524286441  1.0000
  H   H24       1.0  0.7620973555591908  0.36738736629690005  0.74841290780379  1.0000
  H   H25       1.0  0.733244749354346  0.28353132519363355  0.9183622040440724  1.0000
  Zn  Zn1       1.0  0.8516980971453841  0.608329071240153  0.49419535817449683  1.0000
  Zn  Zn2       1.0  0.019801798994053984  0.6165885555513699  0.5094648963816448  1.0000
  C   C32       1.0  0.9346352186706458  0.6086202595880159  0.7649938054226186  1.0000
  C   C33       1.0  0.9368665218779723  0.6162992785330574  0.23866676609745774  1.0000
  C   C34       1.0  0.937120492232226  0.8758807560226248  0.4973596805650752  1.0000
  C   C35       1.0  0.9343811817754548  0.3490370467171797  0.5063009542066657  1.0000
  O   O1        1.0  0.0004477556789905807  0.621745537090667  0.29815944740416267  1.0000
  O   O2        1.0  0.9986408010674114  0.609441667269049  0.7170899302314621  1.0000
  O   O3        1.0  0.0006468247287045783  0.825257866717477  0.5009734099758838  1.0000
  O   O4        1.0  0.9984416751544208  0.40592934435986905  0.514275854452491  1.0000
  O   O5        1.0  0.8730581636195134  0.818988279614613  0.4893843948853347  1.0000
  O   O6        1.0  0.8710521491336529  0.6031738127304125  0.7055008466709332  1.0000
  O   O7        1.0  0.8728591106967161  0.6154776197280671  0.28656863108081665  1.0000
  O   O8        1.0  0.870853029669919  0.39966141746259876  0.5026851461180788  1.0000
