data_image0
_chemical_formula_structural       NC5NC4H6C9H8C6NCOH5Zn2C4O8
_chemical_formula_sum              "N3 C29 H19 O9 Zn2"
_cell_length_a       13.854160002989762
_cell_length_b       9.275152443626249
_cell_length_c       9.27373355559583
_cell_angle_alpha    85.97646638804791
_cell_angle_beta     90.01106291040419
_cell_angle_gamma    90.57354205828562

_space_group_name_H-M_alt    "P 1"
_space_group_IT_number       1

loop_
  _space_group_symop_operation_xyz
  'x, y, z'

loop_
  _atom_site_type_symbol
  _atom_site_label
  _atom_site_symmetry_multiplicity
  _atom_site_fract_x
  _atom_site_fract_y
  _atom_site_fract_z
  _atom_site_occupancy
  N   N1        1.0  0.9191682276127622  0.5616628789858495  0.4048781396605574  1.0000
  C   C1        1.0  0.8469926567269432  0.5862470015193373  0.3457607435607236  1.0000
  C   C2        1.0  0.7572052324422284  0.6168303096712531  0.2722164401963869  1.0000
  C   C3        1.0  0.669450828175061  0.588109904103997  0.34402198231153375  1.0000
  C   C4        1.0  0.5820628201623631  0.6168303237553756  0.2722164169806587  1.0000
  C   C5        1.0  0.4918845143935493  0.5862468551482362  0.3457608356654238  1.0000
  N   N2        1.0  0.4193946565893165  0.5616628154728069  0.4048781397925878  1.0000
  C   C6        1.0  0.582465919061697  0.6748778874784911  0.12862221097158244  1.0000
  C   C7        1.0  0.6702019814666915  0.7057478212225774  0.0567058527132418  1.0000
  C   C8        1.0  0.6705717380887376  0.7639132587922988  0.9016248951806469  1.0000
  C   C9        1.0  0.7575430080703237  0.674877885183818  0.12862212072210144  1.0000
  H   H1        1.0  0.6691633961686748  0.5430708984638459  0.45516164415269666  1.0000
  H   H2        1.0  0.5147277858038216  0.6960722302717017  0.0729125119059133  1.0000
  H   H3        1.0  0.7358780836280367  0.8318348577894891  0.8776099039711281  1.0000
  H   H4        1.0  0.6061696059950342  0.8318348603654026  0.8776099690320666  1.0000
  H   H5        1.0  0.6699506280061837  0.6725992102322194  0.8304016368869277  1.0000
  H   H6        1.0  0.8255507456225821  0.6960723418652133  0.07291242611508619  1.0000
  C   C10       1.0  0.16643898553281433  0.13804635152300687  0.40634951228348715  1.0000
  C   C11       1.0  0.13159432295178086  0.2194708682233977  0.28391242676268136  1.0000
  C   C12       1.0  0.10572142084017111  0.15269001985396757  0.15918301424287673  1.0000
  C   C13       1.0  0.1142868246247004  0.0032969396484032747  0.1544210816955005  1.0000
  C   C14       1.0  0.14724378898120438  0.9201731638792341  0.2758234151074592  1.0000
  C   C15       1.0  0.1721330772678579  0.985268400607635  0.40341926797439953  1.0000
  C   C16       1.0  0.08810981559260875  0.9347602914902834  0.02525593064602671  1.0000
  C   C17       1.0  0.06619268547116675  0.8773434256096836  0.9171003683018705  1.0000
  C   C18       1.0  0.03960057982517061  0.8076662131889206  0.7858725617443874  1.0000
  H   H7        1.0  0.3051922806858951  0.22278881353913138  0.6941741333197741  1.0000
  H   H8        1.0  0.12650970887794233  0.3359834864431506  0.283459093051462  1.0000
  H   H9        1.0  0.0798957375804179  0.21792738773213707  0.06584354141828586  1.0000
  H   H10       1.0  0.15130690713623274  0.8038199569159625  0.2718029983825143  1.0000
  H   H11       1.0  0.26245792195940876  0.692083151639475  0.6002816449690616  1.0000
  H   H12       1.0  0.05724870274030591  0.6910889745602591  0.7993364800636459  1.0000
  H   H13       1.0  0.9610355575288492  0.8200369040174439  0.766142625499465  1.0000
  H   H14       1.0  0.08034395736162869  0.8590129057135327  0.6925857190182354  1.0000
  C   C19       1.0  0.1692002497016449  0.5571123773431883  0.9816731226270371  1.0000
  C   C20       1.0  0.08043033873130588  0.5488326616505856  0.055653219514895984  1.0000
  C   C21       1.0  0.9926167990305141  0.5522433887515662  0.9806919363036042  1.0000
  C   C22       1.0  0.9935789567613572  0.5686229188270099  0.8292875510127531  1.0000
  C   C23       1.0  0.08088303587511714  0.5747500494666158  0.7541109065134588  1.0000
  C   C24       1.0  0.16937180164794544  0.5662023210017679  0.828095716546885  1.0000
  N   N3        1.0  0.9035824560896379  0.5471838695890369  0.060723919099579415  1.0000
  C   C25       1.0  0.8161748377205836  0.4807554929485187  0.014171244761958626  1.0000
  O   O1        1.0  0.8151541974176241  0.40441433215152  0.9070844477776978  1.0000
  H   H15       1.0  0.3973276058066591  0.6572792697171346  0.07764013592371043  1.0000
  H   H16       1.0  0.9269821463944434  0.5782275506506485  0.7686397181209346  1.0000
  H   H17       1.0  0.3237395640610796  0.6275692608408941  0.5427772364928738  1.0000
  H   H18       1.0  0.903494565634838  0.5855401109054077  0.16401025789412005  1.0000
  H   H19       1.0  0.7502835922103792  0.4928535489612169  0.07455024143941834  1.0000
  Zn  Zn1       1.0  0.06352275081462322  0.5616590879843224  0.40488648449794873  1.0000
  Zn  Zn2       1.0  0.27504005762381234  0.5616549289660286  0.4048816717583761  1.0000
  C   C26       1.0  0.16929859924873414  0.5587373296411202  0.6681235794327146  1.0000
  C   C27       1.0  0.16926653121376814  0.5645785089269943  0.14164471192748507  1.0000
  C   C28       1.0  0.1710506342087416  0.8250636958363469  0.3982302036865606  1.0000
  C   C29       1.0  0.1675144124449468  0.2982504104071255  0.411538170504804  1.0000
  O   O2        1.0  0.24955844919996267  0.5670763391785678  0.19533083401199433  1.0000
  O   O3        1.0  0.24954341555526025  0.5562352500804641  0.6144333934910523  1.0000
  O   O4        1.0  0.25095712417254035  0.7712971750542129  0.39649257787251746  1.0000
  O   O5        1.0  0.2481446684536076  0.35201442336515365  0.41327154153822887  1.0000
  O   O6        1.0  0.0904180678043609  0.771299593588106  0.3964966147121524  1.0000
  O   O7        1.0  0.08900437081542822  0.5562394009419067  0.6144373474935788  1.0000
  O   O8        1.0  0.08901940383527984  0.5670804211625725  0.19533305547665278  1.0000
  O   O9        1.0  0.08760562303753307  0.3520184961917319  0.413273871089244  1.0000
