data_image0
_chemical_formula_structural       NC6NC2H4C6H6C12H9Zn2C4O8
_chemical_formula_sum              "N2 C30 H19 Zn2 O8"
_cell_length_a       14.927258858638513
_cell_length_b       10.681118228259553
_cell_length_c       14.388202922059104
_cell_angle_alpha    85.83991400591465
_cell_angle_beta     92.42189218729648
_cell_angle_gamma    89.99830799242187

_space_group_name_H-M_alt    "P 1"
_space_group_IT_number       1

loop_
  _space_group_symop_operation_xyz
  'x, y, z'

loop_
  _atom_site_type_symbol
  _atom_site_label
  _atom_site_symmetry_multiplicity
  _atom_site_fract_x
  _atom_site_fract_y
  _atom_site_fract_z
  _atom_site_occupancy
  N   N1        1.0  0.801750400160559  0.3638739152702557  0.9740270970637561  1.0000
  C   C1        1.0  0.7242239092716882  0.3638738905570024  0.9740271038957331  1.0000
  C   C2        1.0  0.627791400414944  0.36387399029866674  0.9740270717251994  1.0000
  C   C3        1.0  0.5774099968707839  0.3427706852175907  0.8922848840728257  1.0000
  C   C4        1.0  0.4836986820193438  0.3427707069208237  0.8922847979613425  1.0000
  C   C5        1.0  0.439975336916046  0.36387383619356045  0.9740270837440645  1.0000
  C   C6        1.0  0.3435427610676098  0.3638739359377743  0.9740270515697083  1.0000
  N   N2        1.0  0.26601627017873986  0.36387391122452084  0.9740270584016857  1.0000
  C   C7        1.0  0.4903566734685148  0.3849771412771863  0.05576927139261556  1.0000
  C   C8        1.0  0.5840679883199545  0.3849771195739533  0.055769357504098616  1.0000
  H   H1        1.0  0.6105160181094698  0.32635112350518464  0.8286847706698193  1.0000
  H   H2        1.0  0.4454123624651066  0.32635129502467247  0.8286847674869682  1.0000
  H   H3        1.0  0.45725072205845685  0.40139669448244747  0.11936945453570541  1.0000
  H   H4        1.0  0.622354310761918  0.4013966164503953  0.11936945897359302  1.0000
  C   C9        1.0  0.03388780563606386  0.9961239252462419  0.9740310867320818  1.0000
  C   C10       1.0  0.07622333156827987  0.9220899718122161  0.047899552763379115  1.0000
  C   C11       1.0  0.07622331613984135  0.7912077333604836  0.04789951023783812  1.0000
  C   C12       1.0  0.033887792233191716  0.7316143294639698  0.9740311269407746  1.0000
  C   C13       1.0  0.9915873074892987  0.805637279207318  0.9002237038954202  1.0000
  C   C14       1.0  0.9915873226783928  0.9365295375511187  0.900223741646295  1.0000
  H   H5        1.0  0.991074903310282  0.3021353283644231  0.8993304519370005  1.0000
  H   H6        1.0  0.10940796609733822  0.9652412997657122  0.10580111384815605  1.0000
  H   H7        1.0  0.10940785528663338  0.7367372710633612  0.1058010974179391  1.0000
  H   H8        1.0  0.9583983457132264  0.7625314452505696  0.8423145826553624  1.0000
  H   H9        1.0  0.9583983219231055  0.9909558842353888  0.8423145750921524  1.0000
  H   H10       1.0  0.9910752228863903  0.44020597584226434  0.8993302003256499  1.0000
  C   C15       1.0  0.022761775951581485  0.3620967533116396  0.7008891398851491  1.0000
  C   C16       1.0  0.9327301395707818  0.34688516149102644  0.7242197560806862  1.0000
  C   C17       1.0  0.8658115118977622  0.33539727247369605  0.6546344428970114  1.0000
  C   C18       1.0  0.8877195499854666  0.3389381969415602  0.5611290979698011  1.0000
  C   C19       1.0  0.9772570522874352  0.35417389830894314  0.5360099734619641  1.0000
  C   C20       1.0  0.044410891205446626  0.3656412684627312  0.6065389851575782  1.0000
  C   C21       1.0  0.0005998201376316004  0.3581091500127072  0.43649818780564753  1.0000
  C   C22       1.0  0.9594707430260323  0.27580601886945444  0.3759035171069032  1.0000
  C   C23       1.0  0.9814593798130371  0.27947301924366563  0.2822765183474554  1.0000
  C   C24       1.0  0.045013832889102545  0.3656414961342143  0.2471730912746246  1.0000
  C   C25       1.0  0.0860975590761901  0.4479767378808861  0.3076541955483634  1.0000
  C   C26       1.0  0.06415925389180145  0.4442377844396601  0.40130146288303414  1.0000
  H   H11       1.0  0.23228448083645972  0.3974665385581444  0.80062460065999  1.0000
  H   H12       1.0  0.9139628608629039  0.3438669645189342  0.7962263627513395  1.0000
  H   H13       1.0  0.796622653660609  0.3240445997728217  0.6732384845368165  1.0000
  H   H14       1.0  0.8344810110294669  0.3314390558656093  0.5083516062210585  1.0000
  H   H15       1.0  0.11371429228881927  0.37560883332057693  0.5878850751997442  1.0000
  H   H16       1.0  0.9110854675125863  0.20734405779878506  0.4012043863717867  1.0000
  H   H17       1.0  0.9488000870196248  0.21454915878166303  0.23746098906703994  1.0000
  H   H18       1.0  0.13512128877672486  0.5156840976654593  0.28265850737278786  1.0000
  H   H19       1.0  0.09610897608926708  0.5099850267043433  0.44593273653424736  1.0000
  Zn  Zn1       1.0  0.9357277284572655  0.36387059332406957  0.9740324604644908  1.0000
  Zn  Zn2       1.0  0.13203926356233797  0.36386702499226753  0.9740293250306594  1.0000
  C   C27       1.0  0.04080570017250819  0.3599825192536501  0.143913712024328  1.0000
  C   C28       1.0  0.026963439281595412  0.3677566797195873  0.8041481647299958  1.0000
  C   C29       1.0  0.033732194855596656  0.5925669107985886  0.9703245856159688  1.0000
  C   C30       1.0  0.034036879631111266  0.13517078391441512  0.9777373407290585  1.0000
  O   O1        1.0  0.10287276036420856  0.369649385148483  0.8388016468696737  1.0000
  O   O2        1.0  0.11389228098840934  0.3580861590700677  0.10925758240889932  1.0000
  O   O3        1.0  0.10817937109927739  0.5459010029676561  0.9690831346783906  1.0000
  O   O4        1.0  0.10858560042471344  0.1818345497580398  0.9789760248600989  1.0000
  O   O5        1.0  0.9591813246031988  0.5459030685608464  0.9690857606312291  1.0000
  O   O6        1.0  0.9648942324680343  0.35808972892604096  0.10926015876721201  1.0000
  O   O7        1.0  0.9538746663512736  0.36965290410821816  0.8388031049300888  1.0000
  O   O8        1.0  0.9595875092487145  0.1818380602131786  0.9789775526567754  1.0000
