data_image0
_chemical_formula_structural       NC10NC3NCH9C7OC3NC3H11C7OC3OC4H12Zn2C4O8
_chemical_formula_sum              "N4 C45 H32 O11 Zn2"
_cell_length_a       19.437513618241372
_cell_length_b       10.298746005989749
_cell_length_c       10.299374482448636
_cell_angle_alpha    85.55101224981433
_cell_angle_beta     90.32903884356655
_cell_angle_gamma    89.53148363849229

_space_group_name_H-M_alt    "P 1"
_space_group_IT_number       1

loop_
  _space_group_symop_operation_xyz
  'x, y, z'

loop_
  _atom_site_type_symbol
  _atom_site_label
  _atom_site_symmetry_multiplicity
  _atom_site_fract_x
  _atom_site_fract_y
  _atom_site_fract_z
  _atom_site_occupancy
  N   N1        1.0  0.6482043520595249  0.41093152249278475  0.5757919962127498  1.0000
  C   C1        1.0  0.5892728769436165  0.42794374847759914  0.5728184413317209  1.0000
  C   C2        1.0  0.5158347264995586  0.44919896009873295  0.5691275009789725  1.0000
  C   C3        1.0  0.47406496311520474  0.3480046139650704  0.5574525933614429  1.0000
  C   C4        1.0  0.3981767921925337  0.3580722859938425  0.5502325131713092  1.0000
  C   C5        1.0  0.3586013048208221  0.4389076129584857  0.6159894311454364  1.0000
  C   C6        1.0  0.2824193854445986  0.43030119112607745  0.6075437453295944  1.0000
  C   C7        1.0  0.24927238081901731  0.30894579156720847  0.6121690266892036  1.0000
  C   C8        1.0  0.17753803241839852  0.3025756733654894  0.6049997651711122  1.0000
  C   C9        1.0  0.1379799763875355  0.4170881251210914  0.5935673952743066  1.0000
  C   C10       1.0  0.064131145861952  0.4103798510992484  0.5862299857615088  1.0000
  N   N2        1.0  0.004761784143829603  0.4049869887594997  0.5803311670232512  1.0000
  C   C11       1.0  0.17041026647811816  0.5381327054762046  0.5896873687361746  1.0000
  C   C12       1.0  0.24212903443555772  0.5447568157517808  0.5969186920115188  1.0000
  C   C13       1.0  0.38728242370159704  0.5311723345372958  0.7059263261030988  1.0000
  N   N3        1.0  0.44427570187057946  0.5943959265134959  0.6855309461789109  1.0000
  C   C14       1.0  0.48812894179262667  0.5851687334274267  0.5724181462567046  1.0000
  H   H1        1.0  0.49644170649971703  0.2529448518543429  0.5453166729951409  1.0000
  H   H2        1.0  0.3734631315361005  0.2885726733882552  0.4919019363148389  1.0000
  H   H3        1.0  0.2787131907103986  0.21902372510195642  0.6231767181857744  1.0000
  H   H4        1.0  0.1529353896730558  0.20834105806586778  0.60887288928878  1.0000
  H   H5        1.0  0.1402838417245812  0.6273991028589362  0.5809918050539613  1.0000
  H   H6        1.0  0.266250195012684  0.6394042667851201  0.5930301696981487  1.0000
  H   H7        1.0  0.35727113597185467  0.551533498977729  0.7902989127137592  1.0000
  H   H8        1.0  0.5308873025874647  0.6554847416642187  0.57819232321978  1.0000
  H   H9        1.0  0.4584750954641025  0.6133075338396257  0.48177372285531894  1.0000
  C   C15       1.0  0.8264534913238294  0.026557644288118135  0.5780440534114768  1.0000
  C   C16       1.0  0.8586583264323238  0.03455688326911144  0.45594639627689165  1.0000
  C   C17       1.0  0.8742192949818758  0.9214905428857915  0.3935096868739887  1.0000
  C   C18       1.0  0.8586588504849757  0.7993202860972631  0.4558972644935763  1.0000
  C   C19       1.0  0.8265192260915212  0.789350729496481  0.5780904461236193  1.0000
  C   C20       1.0  0.8104549006952725  0.9035347259268888  0.638231902353617  1.0000
  C   C21       1.0  0.9088119891643168  0.9297362809908926  0.26513099188322875  1.0000
  O   O1        1.0  0.9508235574179382  0.8410640521826757  0.24045287563684623  1.0000
  C   C22       1.0  0.8957466669288437  0.03851627146621284  0.164756200160373  1.0000
  C   C23       1.0  0.830602158744527  0.09899742294640944  0.15181908636786678  1.0000
  C   C24       1.0  0.8185622559108244  0.2008926373864499  0.05575636591795362  1.0000
  N   N4        1.0  0.7523162568867264  0.2622341268910451  0.04370863052708973  1.0000
  C   C25       1.0  0.8717096397058929  0.24191388173417167  0.9712964592463549  1.0000
  C   C26       1.0  0.9362264524437475  0.1812788847927833  0.9823694596636279  1.0000
  C   C27       1.0  0.9482128910791943  0.07980911016761794  0.07812728321769802  1.0000
  H   H10       1.0  0.7665561566777341  0.2187220814643522  0.8096234821574884  1.0000
  H   H11       1.0  0.872347834688205  0.12885674406307368  0.40989761046114415  1.0000
  H   H12       1.0  0.8710750241342469  0.7119333598981445  0.4083561457750288  1.0000
  H   H13       1.0  0.785634178470526  0.8966166232667091  0.7323490231722912  1.0000
  H   H14       1.0  0.7660502271182661  0.5631908402981364  0.8091740581339822  1.0000
  H   H15       1.0  0.7889271511338034  0.06627250818689934  0.21525290037554168  1.0000
  H   H16       1.0  0.712331351316583  0.2324313272268672  0.10615247141338123  1.0000
  H   H17       1.0  0.7427836963594444  0.3380258243375337  0.9723469422450304  1.0000
  H   H18       1.0  0.8630516623272839  0.32042798439595255  0.896697073375534  1.0000
  H   H19       1.0  0.9770588806222319  0.21298281026121055  0.9165925457256042  1.0000
  H   H20       1.0  0.9986706799246576  0.03432434222238577  0.08529737482030718  1.0000
  C   C28       1.0  0.8265501058137318  0.40804061166718725  0.19668553746790127  1.0000
  C   C29       1.0  0.8984153090636277  0.42150804394472785  0.19522993024821297  1.0000
  C   C30       1.0  0.9345753474404203  0.4297736046169036  0.07720695766600283  1.0000
  C   C31       1.0  0.8982508519834792  0.42144690954023467  0.9599889820376144  1.0000
  C   C32       1.0  0.8264226121324673  0.40786772918063047  0.9594489313472436  1.0000
  C   C33       1.0  0.7909684147220806  0.40158453570709685  0.0783084836443162  1.0000
  C   C34       1.0  0.010540666782604015  0.4426343062715076  0.07563587624169266  1.0000
  O   O2        1.0  0.04428997474299434  0.3885250177028076  0.990215196585245  1.0000
  C   C35       1.0  0.048216187032674274  0.5168939607464051  0.17088780665252543  1.0000
  C   C36       1.0  0.11533703748064883  0.4790539296251594  0.2099043867185719  1.0000
  C   C37       1.0  0.15209205147998195  0.5487112074673344  0.2985798384207228  1.0000
  O   O3        1.0  0.21865367578215975  0.5057057013510234  0.33471794542747246  1.0000
  C   C38       1.0  0.2617652850737062  0.5668629177421367  0.4236628070247215  1.0000
  C   C39       1.0  0.12134586550317673  0.6586197706636151  0.3481096104765782  1.0000
  C   C40       1.0  0.055028406733253384  0.6977797343221008  0.30859278348659536  1.0000
  C   C41       1.0  0.01867046617001279  0.627882807283259  0.22016340541421558  1.0000
  H   H21       1.0  0.6910490644907643  0.38063625461372885  0.40690974986001355  1.0000
  H   H22       1.0  0.9264367230918876  0.42413311519181635  0.28617812599317083  1.0000
  H   H23       1.0  0.9261137948771175  0.42683845321757746  0.8689504328699527  1.0000
  H   H24       1.0  0.7355655935014129  0.39120127786826564  0.07862693497063411  1.0000
  H   H25       1.0  0.7988941923522865  0.4015665468394154  0.6318692934713693  1.0000
  H   H26       1.0  0.13918955654399912  0.394336970093585  0.17232449798079053  1.0000
  H   H27       1.0  0.31128436803379333  0.5126755728733556  0.43424871502003515  1.0000
  H   H28       1.0  0.23692137040905184  0.565476028871327  0.5205811252473191  1.0000
  H   H29       1.0  0.2723514191313648  0.6687008700040318  0.3861421290242037  1.0000
  H   H30       1.0  0.1483113479192084  0.7146127391894084  0.4166472214432302  1.0000
  H   H31       1.0  0.03182207904251788  0.7829750118815999  0.3462098588969933  1.0000
  H   H32       1.0  0.9677973353665915  0.6614605420018241  0.18929354336846416  1.0000
  Zn  Zn1       1.0  0.751099128847437  0.40921256725024135  0.5771094118513374  1.0000
  Zn  Zn2       1.0  0.9018670108626374  0.4066952711225555  0.5790244209662287  1.0000
  C   C42       1.0  0.826444736814612  0.40272632215379134  0.8152700190525924  1.0000
  C   C43       1.0  0.8265230493959846  0.4131831274610149  0.3408639622472433  1.0000
  C   C44       1.0  0.8265041323911207  0.645167814392597  0.5729062979515221  1.0000
  C   C45       1.0  0.82646360222687  0.1707400756294999  0.5832277518408752  1.0000
  O   O4        1.0  0.8837295940180053  0.4139480357515568  0.38997829432359027  1.0000
  O   O5        1.0  0.8836675260888425  0.4000498646270598  0.7676087606659572  1.0000
  O   O6        1.0  0.8837147172483305  0.595824448272894  0.5718983313985759  1.0000
  O   O7        1.0  0.883682351428728  0.21817346227779133  0.5856886255601368  1.0000
  O   O8        1.0  0.769283736831669  0.5977343769554508  0.5704452065970994  1.0000
  O   O9        1.0  0.7692365458151088  0.4019613537627711  0.7661555667115887  1.0000
  O   O10       1.0  0.7692986140471025  0.4158594799805524  0.38852353891393915  1.0000
  O   O11       1.0  0.769251371437937  0.2200848971951632  0.5842339675209909  1.0000
