data_image0
_chemical_formula_structural       NC9NC5H8C13OH12C13F3H9Zn2C4O8
_chemical_formula_sum              "N2 C44 H29 O9 F3 Zn2"
_cell_length_a       17.807436237873137
_cell_length_b       10.299150109392551
_cell_length_c       10.2985328690268
_cell_angle_alpha    85.5582241043329
_cell_angle_beta     89.39824995993841
_cell_angle_gamma    88.37145022261349

_space_group_name_H-M_alt    "P 1"
_space_group_IT_number       1

loop_
  _space_group_symop_operation_xyz
  'x, y, z'

loop_
  _atom_site_type_symbol
  _atom_site_label
  _atom_site_symmetry_multiplicity
  _atom_site_fract_x
  _atom_site_fract_y
  _atom_site_fract_z
  _atom_site_occupancy
  N   N1        1.0  0.7070725752733743  0.3874286750861848  0.5565212735789147  1.0000
  C   C1        1.0  0.6464909698588674  0.35223243993808295  0.5455091947385801  1.0000
  C   C2        1.0  0.5711341112024573  0.3084521994207168  0.5318113643204059  1.0000
  C   C3        1.0  0.5530500978754939  0.23699825571081257  0.42682632153533256  1.0000
  C   C4        1.0  0.4798824924061935  0.19437948411166567  0.41344401634874406  1.0000
  C   C5        1.0  0.4237502501218435  0.22283708340404473  0.505014435773867  1.0000
  C   C6        1.0  0.3459919300307233  0.17765925768998314  0.49087455019097814  1.0000
  C   C7        1.0  0.2838018315914863  0.2594306482244544  0.516785982239409  1.0000
  C   C8        1.0  0.2104919597677336  0.21660882499476133  0.5034174323022957  1.0000
  C   C9        1.0  0.147251291690574  0.30107191645236897  0.5296918257114909  1.0000
  N   N2        1.0  0.0964187838947752  0.3689743988301098  0.5508157135736949  1.0000
  C   C10       1.0  0.1987886880659124  0.09175760079546103  0.46411219153418887  1.0000
  C   C11       1.0  0.2601214187885408  0.00997235414351882  0.43819237414288154  1.0000
  C   C12       1.0  0.33331192062729426  0.05239953883294879  0.4513585124760718  1.0000
  C   C13       1.0  0.44252558829974137  0.294785504929417  0.6102185467330744  1.0000
  C   C14       1.0  0.5157460917927728  0.33721381709037757  0.6234452579716612  1.0000
  H   H1        1.0  0.5954451874527071  0.21448877768981833  0.355116255507503  1.0000
  H   H2        1.0  0.4669752813851891  0.1406667431118056  0.33053663768640035  1.0000
  H   H3        1.0  0.29228279407681135  0.35691302935330227  0.5456300931001887  1.0000
  H   H4        1.0  0.1423293976294056  0.0577152837835264  0.45352876906651196  1.0000
  H   H5        1.0  0.2509418920453977  0.9133097711287028  0.40814746614218805  1.0000
  H   H6        1.0  0.3799639101888534  0.9866428387707369  0.4323323563096498  1.0000
  H   H7        1.0  0.4008475516526823  0.31675628882063034  0.6832234028700535  1.0000
  H   H8        1.0  0.5291813671928479  0.39214692673576607  0.7053104917343613  1.0000
  C   C15       1.0  0.9018200833261252  0.9967984246610034  0.55381156133571  1.0000
  C   C16       1.0  0.9004439776400739  0.9851015922568124  0.6906521786616547  1.0000
  C   C17       1.0  0.8996808792712515  0.8620394678343674  0.7597705211928364  1.0000
  C   C18       1.0  0.9002991109947723  0.7498530020117266  0.6902908807405763  1.0000
  C   C19       1.0  0.9016784541528352  0.7595943013809533  0.5535366210835971  1.0000
  C   C20       1.0  0.9024329457895732  0.8835279579285793  0.486096112405614  1.0000
  C   C21       1.0  0.8982185600824376  0.8506475787512956  0.9044423460133206  1.0000
  C   C22       1.0  0.8520266811718695  0.7599776857642119  0.9731454913957673  1.0000
  C   C23       1.0  0.8506257504637542  0.7493405185520678  0.10928189870361626  1.0000
  C   C24       1.0  0.8958841232750963  0.8281932088081742  0.17916898357245928  1.0000
  C   C25       1.0  0.9413572831539623  0.9198510001014623  0.11111898763930539  1.0000
  C   C26       1.0  0.9427756528568759  0.9306631376821193  0.9749820360448279  1.0000
  C   C27       1.0  0.8927990645461131  0.8191919597315646  0.3253108452150656  1.0000
  O   O1        1.0  0.8366502727140619  0.9050411012352921  0.3663771718295368  1.0000
  H   H9        1.0  0.9039294636048669  0.2261927141232907  0.29552563604443677  1.0000
  H   H10       1.0  0.8989209644133592  0.07196215032935302  0.743686841633814  1.0000
  H   H11       1.0  0.9007307308521006  0.6547248859178998  0.7431218252208933  1.0000
  H   H12       1.0  0.9034947486162872  0.8917580229426404  0.3806134910725836  1.0000
  H   H13       1.0  0.9021584322547496  0.43586807547932466  0.5009368775774508  1.0000
  H   H14       1.0  0.8160955012830097  0.6986575481605118  0.9215596337130385  1.0000
  H   H15       1.0  0.814083099144512  0.6797570287857743  0.16019654009301254  1.0000
  H   H16       1.0  0.9759046753796407  0.9827899053044298  0.16347138227179536  1.0000
  H   H17       1.0  0.9793435211946279  0.0006910907121826514  0.9248737257112096  1.0000
  H   H18       1.0  0.9480624066950011  0.8444129969889014  0.3646738711899472  1.0000
  H   H19       1.0  0.8805923098855146  0.7177598070854804  0.3633049934477942  1.0000
  H   H20       1.0  0.8369339884179517  0.8953774160823098  0.46300656194259476  1.0000
  C   C28       1.0  0.901727698581579  0.3780754539317678  0.17227695778669116  1.0000
  C   C29       1.0  0.9770673531950993  0.3336098674601884  0.1734008867472974  1.0000
  C   C30       1.0  0.015242498519209892  0.31119749872538605  0.05679949180066824  1.0000
  C   C31       1.0  0.9771116574680208  0.33386340474270154  0.938099468141921  1.0000
  C   C32       1.0  0.9017708343732759  0.3783173408286803  0.9350712113317783  1.0000
  C   C33       1.0  0.86455999511782  0.40013430858286164  0.052650372182659895  1.0000
  C   C34       1.0  0.09489445203530784  0.2641989593281717  0.05892218604379053  1.0000
  C   C35       1.0  0.1467586702948065  0.3163455194275233  0.9666006679355656  1.0000
  C   C36       1.0  0.22172181816317302  0.2722157227104367  0.9686198571711252  1.0000
  C   C37       1.0  0.2461851567711697  0.17365234168713517  0.061768252064923646  1.0000
  C   C38       1.0  0.1947554737296459  0.12330437603242596  0.15566006866295323  1.0000
  C   C39       1.0  0.11979721008890952  0.16746699886091876  0.1537517168279472  1.0000
  C   C40       1.0  0.32764554372858323  0.1295015107795856  0.06687268360976795  1.0000
  F   F1        1.0  0.36615880715959825  0.2069969637605118  0.14576418011048942  1.0000
  F   F2        1.0  0.3596379719352143  0.1391591933792491  0.9435425959781116  1.0000
  F   F3        1.0  0.33462679408462986  0.001039259054548715  0.11670300598570216  1.0000
  H   H21       1.0  0.7595068114006983  0.46291068718691725  0.37741268516685533  1.0000
  H   H22       1.0  0.006490398149196163  0.31805459788151635  0.2650538660070023  1.0000
  H   H23       1.0  0.005967212938987164  0.3151127965712739  0.8480522512474452  1.0000
  H   H24       1.0  0.8064939894308151  0.4343995772832055  0.05105101925356627  1.0000
  H   H25       1.0  0.75926647758021  0.4615823479006351  0.7220824221777615  1.0000
  H   H26       1.0  0.12962486812056603  0.39292793958930305  0.8940949424962605  1.0000
  H   H27       1.0  0.26066249889784854  0.31559991466677473  0.8975475061612439  1.0000
  H   H28       1.0  0.21248936330559198  0.04958527954881075  0.23059882818815236  1.0000
  H   H29       1.0  0.08112694143038413  0.12502409288590655  0.22583943569623255  1.0000
  Zn  Zn1       1.0  0.8194294806158248  0.38209970637929397  0.5548822848053949  1.0000
  Zn  Zn2       1.0  0.9840618629247292  0.3742927838036679  0.5524653835651518  1.0000
  C   C41       1.0  0.9017619674341527  0.3730975413137535  0.7908886459139015  1.0000
  C   C42       1.0  0.9017311735898333  0.383296502424116  0.3164591229493161  1.0000
  C   C43       1.0  0.9017010648059032  0.6154082246460029  0.5484130745375081  1.0000
  C   C44       1.0  0.9017920203342041  0.14098426133593422  0.5589347649566686  1.0000
  O   O2        1.0  0.9642094719837696  0.38208038131456606  0.36393077531584767  1.0000
  O   O3        1.0  0.9642358380394324  0.3683874088997996  0.7415822479088172  1.0000
  O   O4        1.0  0.9641858162516667  0.5640563904940696  0.5457815203451744  1.0000
  O   O5        1.0  0.9642594375864227  0.18641141164444328  0.559731406318996  1.0000
  O   O6        1.0  0.8392318497731784  0.5699810812040496  0.5476162628694881  1.0000
  O   O7        1.0  0.8392818712638695  0.3743136600312439  0.7434169206201104  1.0000
  O   O8        1.0  0.8392555051782657  0.38800658668851185  0.3657638865265491  1.0000
  O   O9        1.0  0.8393054707850786  0.19233760775977313  0.5615646149081301  1.0000
