data_image0
_chemical_formula_structural       NC9NC5H8C7OH6C6OCH7Zn2C4O8
_chemical_formula_sum              "N2 C32 H21 O10 Zn2"
_cell_length_a       17.807436237873137
_cell_length_b       9.274078303013077
_cell_length_c       9.273891588657152
_cell_angle_alpha    86.24854706109078
_cell_angle_beta     89.08663702953788
_cell_angle_gamma    87.81002060722456

_space_group_name_H-M_alt    "P 1"
_space_group_IT_number       1

loop_
  _space_group_symop_operation_xyz
  'x, y, z'

loop_
  _atom_site_type_symbol
  _atom_site_label
  _atom_site_symmetry_multiplicity
  _atom_site_fract_x
  _atom_site_fract_y
  _atom_site_fract_z
  _atom_site_occupancy
  N   N1        1.0  0.70398142581316  0.5267284030774422  0.4033177455963037  1.0000
  C   C1        1.0  0.6436371209367795  0.4875299816429875  0.3909582585864668  1.0000
  C   C2        1.0  0.5685754380738155  0.43877146196089406  0.37558439891573325  1.0000
  C   C3        1.0  0.5512488148705827  0.35837980223369953  0.25878419604428177  1.0000
  C   C4        1.0  0.4783687140115405  0.3109143520323514  0.24376506545684706  1.0000
  C   C5        1.0  0.4217688456276182  0.34342089867841136  0.3455087949331499  1.0000
  C   C6        1.0  0.3443151401045433  0.2931058264534343  0.32963885108180596  1.0000
  C   C7        1.0  0.2815726304188524  0.38417871056965447  0.3587166566269815  1.0000
  C   C8        1.0  0.2085513744150041  0.33648787969853033  0.3437120004602583  1.0000
  C   C9        1.0  0.1447417456096122  0.4305538268083576  0.37320315491129574  1.0000
  N   N2        1.0  0.0934518291022371  0.5061763515569098  0.3969132162451043  1.0000
  C   C10       1.0  0.197690684315851  0.19743736125220876  0.29960049760317053  1.0000
  C   C11       1.0  0.2595759332160865  0.10634900559853079  0.2705133312189487  1.0000
  C   C12       1.0  0.3324807432944603  0.15359954698132183  0.2852917937462475  1.0000
  C   C13       1.0  0.4397832451230564  0.42436389655643203  0.46255406791528375  1.0000
  C   C14       1.0  0.5127178483722018  0.471616285873105  0.47739976383399446  1.0000
  H   H1        1.0  0.5940113850457894  0.33267476239965266  0.1791063959270338  1.0000
  H   H2        1.0  0.46604414798611815  0.2504437978210756  0.15153777107578656  1.0000
  H   H3        1.0  0.289401869418769  0.4927295902422902  0.3911107061507652  1.0000
  H   H4        1.0  0.1414606888806819  0.15952473577591708  0.2877212728303011  1.0000
  H   H5        1.0  0.2510474639292519  0.9986968115308639  0.23678973326224725  1.0000
  H   H6        1.0  0.3795709161831221  0.08038083093939496  0.2639183475904605  1.0000
  H   H7        1.0  0.3977364784887669  0.44948337870590366  0.5436668348044031  1.0000
  H   H8        1.0  0.525567000856599  0.5334319730787724  0.5684751586838962  1.0000
  C   C15       1.0  0.9009639881830042  0.09285469648390704  0.3987859891079412  1.0000
  C   C16       1.0  0.886817832025684  0.17589141640906458  0.2688987369547178  1.0000
  C   C17       1.0  0.8661639708251908  0.11074945459045148  0.14404207563201643  1.0000
  C   C18       1.0  0.8594568083086346  0.9605034427538374  0.1489960745035115  1.0000
  C   C19       1.0  0.8744565798229237  0.8763388742694461  0.2761866402767667  1.0000
  C   C20       1.0  0.8964764789554592  0.9400387071877124  0.401457372073599  1.0000
  C   C21       1.0  0.8510782353868274  0.20125278603373564  0.01013911873146789  1.0000
  O   O1        1.0  0.8321012258253302  0.1459273625981941  0.8963201571810623  1.0000
  H   H9        1.0  0.8976032647672366  0.17286203851689663  0.753738027206428  1.0000
  H   H10       1.0  0.8901884681112284  0.29255111209442597  0.2657343804695316  1.0000
  H   H11       1.0  0.843299182424546  0.9076459020846669  0.05410251386103448  1.0000
  H   H12       1.0  0.870541586838849  0.7601013607730763  0.27547994628420164  1.0000
  H   H13       1.0  0.8975052446138961  0.6432450061536007  0.6398253310261299  1.0000
  H   H14       1.0  0.8562706260366587  0.31727970567851194  0.008539097800050802  1.0000
  C   C22       1.0  0.8999716075944122  0.5125614120224122  0.9768140378538588  1.0000
  C   C23       1.0  0.9611930680875694  0.5702412050868577  0.044567818739225995  1.0000
  C   C24       1.0  0.01809466995949438  0.6389173153328549  0.9640422157541084  1.0000
  C   C25       1.0  0.013977728539303905  0.6502642761837403  0.8127034365007528  1.0000
  C   C26       1.0  0.9543397571121867  0.59162774161084  0.7435787407359706  1.0000
  C   C27       1.0  0.897468829797019  0.5203319612126838  0.8234292612350708  1.0000
  O   O2        1.0  0.07727317897360052  0.6949293758328485  0.038457053283741154  1.0000
  C   C28       1.0  0.1387565508911286  0.7675791197721336  0.9706024105112075  1.0000
  H   H15       1.0  0.7216867103790123  0.43339731397664344  0.0904913565202754  1.0000
  H   H16       1.0  0.05697724520087898  0.703062522661731  0.7472431033585778  1.0000
  H   H17       1.0  0.9536939925880744  0.5990941282561972  0.6265309781387116  1.0000
  H   H18       1.0  0.7786097520096098  0.4612555004402308  0.5497407167862378  1.0000
  H   H19       1.0  0.11806651491474261  0.8662581017275466  0.9068463559774522  1.0000
  H   H20       1.0  0.17047087314909426  0.6943350693055047  0.8994487272114093  1.0000
  H   H21       1.0  0.17704336463893222  0.8000283451477289  0.054922081866755505  1.0000
  Zn  Zn1       1.0  0.8163741657286931  0.5207937524814443  0.4014778613800265  1.0000
  Zn  Zn2       1.0  0.9810590982404355  0.5120993525520223  0.39876491409173553  1.0000
  C   C29       1.0  0.8979706835685517  0.51311673612407  0.6633827816581708  1.0000
  C   C30       1.0  0.8994643686958183  0.519778095327911  0.13686011141111118  1.0000
  C   C31       1.0  0.8973378160083523  0.7798503936976191  0.3952081762385108  1.0000
  C   C32       1.0  0.9000971890134359  0.25304270835302534  0.4050347891445012  1.0000
  O   O3        1.0  0.96179124164772  0.5188943076044894  0.18954346653516094  1.0000
  O   O4        1.0  0.9606358708340221  0.5074005834608069  0.6086399439268395  1.0000
  O   O5        1.0  0.9601239753540264  0.7227914434948879  0.39208707127908204  1.0000
  O   O6        1.0  0.9623030811967589  0.30350345986410665  0.40609623205835077  1.0000
  O   O7        1.0  0.8351301265734987  0.729389648137833  0.39414654433162966  1.0000
  O   O8        1.0  0.8356420130972049  0.5140005204735612  0.6106993455838761  1.0000
  O   O9        1.0  0.8367973893505519  0.5254941784402876  0.1916011349267177  1.0000
  O   O10       1.0  0.8373092286316767  0.310103321374679  0.4081540084926938  1.0000
