data_image0
_chemical_formula_structural       NC8NH4C6BrH5C7OH5Zn2C4O8
_chemical_formula_sum              "N2 C25 H14 Br1 O9 Zn2"
_cell_length_a       13.859017124695912
_cell_length_b       9.276564384272257
_cell_length_c       9.274074313596557
_cell_angle_alpha    86.07032153844699
_cell_angle_beta     90.23359480828564
_cell_angle_gamma    90.58596084768166

_space_group_name_H-M_alt    "P 1"
_space_group_IT_number       1

loop_
  _space_group_symop_operation_xyz
  'x, y, z'

loop_
  _atom_site_type_symbol
  _atom_site_label
  _atom_site_symmetry_multiplicity
  _atom_site_fract_x
  _atom_site_fract_y
  _atom_site_fract_z
  _atom_site_occupancy
  N   N1        1.0  0.9149451169071746  0.5626159732505714  0.40888869012605067  1.0000
  C   C1        1.0  0.8422772035297739  0.5392067380611547  0.3527488433587087  1.0000
  C   C2        1.0  0.7518826582703034  0.5100890652889554  0.28291808876857805  1.0000
  C   C3        1.0  0.6646475090552298  0.5384758339305904  0.3509942881385668  1.0000
  C   C4        1.0  0.5766523451790052  0.5100902853755174  0.2829175084757829  1.0000
  C   C5        1.0  0.5760746297063275  0.4533102635754753  0.14674363210123942  1.0000
  C   C6        1.0  0.663128680450326  0.4250326018641983  0.07892947638008896  1.0000
  C   C7        1.0  0.7509399757985337  0.45330792578110746  0.14674481235059944  1.0000
  C   C8        1.0  0.48703736975948897  0.539207659688008  0.3527483445953785  1.0000
  N   N2        1.0  0.4149962440991384  0.5626162937271364  0.4088884738598273  1.0000
  H   H1        1.0  0.6652358834523235  0.5824257689187005  0.45639613019165853  1.0000
  H   H2        1.0  0.5084800866659706  0.4309687830349147  0.093160209248633  1.0000
  H   H3        1.0  0.6625415687782987  0.38117242379005006  0.9737410902247987  1.0000
  H   H4        1.0  0.8179362789226311  0.43096435440769376  0.09316239042816576  1.0000
  C   C9        1.0  0.16206924978610474  0.13913879803886742  0.4092571513671177  1.0000
  C   C10       1.0  0.14933567517628688  0.22134538298297018  0.27752888952443916  1.0000
  C   C11       1.0  0.1455853370110285  0.1550758910421557  0.14703103188904465  1.0000
  C   C12       1.0  0.1545402046374651  0.005656494864048512  0.14578355095799322  1.0000
  C   C13       1.0  0.16556837700785798  0.9217370319344647  0.2755198596542081  1.0000
  C   C14       1.0  0.16788130529971057  0.9860824930071372  0.40853245760482193  1.0000
  Br  Br1       1.0  0.15011754178638714  0.9155414827381644  0.9667176893291627  1.0000
  H   H5        1.0  0.1344302513495217  0.40399060957043015  0.6435738908674178  1.0000
  H   H6        1.0  0.14456710417814223  0.33797755861179035  0.27506147314371  1.0000
  H   H7        1.0  0.13663383131668527  0.2203109258578433  0.04663795985819897  1.0000
  H   H8        1.0  0.1700241078699416  0.8054665590759925  0.2724124983963341  1.0000
  H   H9        1.0  0.22173702081707858  0.6903527100835778  0.6330064911735152  1.0000
  C   C15       1.0  0.1637914682328907  0.5584572730968418  0.9856572054951838  1.0000
  C   C16       1.0  0.0799538354706022  0.6010315794321779  0.05550966407280656  1.0000
  C   C17       1.0  0.0009471589064842235  0.6551953053235835  0.9762811202387408  1.0000
  C   C18       1.0  0.003931194690419246  0.6682254065598758  0.8249899688683432  1.0000
  C   C19       1.0  0.08645408627374174  0.623910078058292  0.7539991144805791  1.0000
  C   C20       1.0  0.16615904958137073  0.5667640022221178  0.8321325033103273  1.0000
  C   C21       1.0  0.921331423109642  0.7263548285793262  0.7395495578759448  1.0000
  O   O1        1.0  0.8459956717552212  0.7665346421131831  0.8002214862272172  1.0000
  H   H10       1.0  0.39929772019491816  0.5217167645427643  0.09247711994264463  1.0000
  H   H11       1.0  0.9378643271197259  0.6882076711355407  0.033654552043356205  1.0000
  H   H12       1.0  0.0876201159681742  0.6308985914048821  0.6368364716812258  1.0000
  H   H13       1.0  0.32442715037710324  0.5367915662088587  0.5546922619342776  1.0000
  H   H14       1.0  0.9248177797643697  0.7351080818656488  0.6226725498956371  1.0000
  Zn  Zn1       1.0  0.05924907039552486  0.562612297279567  0.4088969584581663  1.0000
  Zn  Zn2       1.0  0.2706922353124188  0.562608322054706  0.40889203666805796  1.0000
  C   C22       1.0  0.1656699749974544  0.5594489627945896  0.6721354199726481  1.0000
  C   C23       1.0  0.16427365254536477  0.5657734774306977  0.14565371500342117  1.0000
  C   C24       1.0  0.16676166895864086  0.8259357678200359  0.40292614964906637  1.0000
  C   C25       1.0  0.16318187475869017  0.2992849405787492  0.4148630636510957  1.0000
  O   O2        1.0  0.24467701397265176  0.568221062543457  0.19934814276971013  1.0000
  O   O3        1.0  0.24574707465426426  0.556997268609045  0.6184368427235147  1.0000
  O   O4        1.0  0.24662755383112558  0.7721887485796921  0.40104845097921604  1.0000
  O   O5        1.0  0.24379646241309305  0.35302959182967864  0.41673642644188424  1.0000
  O   O6        1.0  0.08614477113966501  0.7721910275074464  0.4010525686784367  1.0000
  O   O7        1.0  0.08526430363310755  0.5570012793661545  0.6184408820927398  1.0000
  O   O8        1.0  0.08419423782407032  0.5682250060429086  0.19935044936237012  1.0000
  O   O9        1.0  0.08331368649202386  0.3530335260751143  0.41673884110076553  1.0000
