data_image0
_chemical_formula_structural       NC10NC3NH7C12SCH12C12OCH12Zn2C4O8
_chemical_formula_sum              "N3 C43 H31 S1 O9 Zn2"
_cell_length_a       19.210446455230148
_cell_length_b       10.299776766347529
_cell_length_c       10.299794127170987
_cell_angle_alpha    85.57877721711455
_cell_angle_beta     89.98403246644892
_cell_angle_gamma    89.9285037425463

_space_group_name_H-M_alt    "P 1"
_space_group_IT_number       1

loop_
  _space_group_symop_operation_xyz
  'x, y, z'

loop_
  _atom_site_type_symbol
  _atom_site_label
  _atom_site_symmetry_multiplicity
  _atom_site_fract_x
  _atom_site_fract_y
  _atom_site_fract_z
  _atom_site_occupancy
  N   N1        1.0  0.6553087514029937  0.41975786450755365  0.5674850113765941  1.0000
  C   C1        1.0  0.5950796287176294  0.4219653861071302  0.5677162945119902  1.0000
  C   C2        1.0  0.520274478319636  0.42470230859107344  0.5680028255957197  1.0000
  C   C3        1.0  0.4846332185717354  0.5409339386297729  0.5831215649441388  1.0000
  C   C4        1.0  0.41196770221127427  0.5410854575661908  0.5830689802931759  1.0000
  C   C5        1.0  0.3751075384839449  0.4254112807296948  0.5680893514598273  1.0000
  C   C6        1.0  0.297785764717478  0.4240547988435899  0.5679386770009838  1.0000
  C   C7        1.0  0.2600074950366608  0.5276054357653375  0.5045869862434016  1.0000
  C   C8        1.0  0.1872295052349474  0.5262032112239907  0.5044778243915005  1.0000
  C   C9        1.0  0.1512283098574337  0.4215078390110314  0.5676693761667329  1.0000
  C   C10       1.0  0.07629913077520958  0.4202057535079158  0.5675324679107385  1.0000
  N   N2        1.0  0.016061552609095305  0.4191588325652791  0.5674224285441074  1.0000
  C   C11       1.0  0.1882828906961682  0.3180828845568269  0.630996068075178  1.0000
  C   C12       1.0  0.2610627980192574  0.31921086182145464  0.6311554550209988  1.0000
  C   C13       1.0  0.4133581796192611  0.3109999380949895  0.5532588829111402  1.0000
  N   N3        1.0  0.4841274899259914  0.31344489479026705  0.5534245995710942  1.0000
  H   H1        1.0  0.5127106343151199  0.6303685076946459  0.5951753152510879  1.0000
  H   H2        1.0  0.3846750953077192  0.6311022545569939  0.5965174216052962  1.0000
  H   H3        1.0  0.2867156537686927  0.6088428781326318  0.4536043454576497  1.0000
  H   H4        1.0  0.1590641351261277  0.6066133302884764  0.45482545438869515  1.0000
  H   H5        1.0  0.160935181825022  0.2367093665822262  0.6805488945597054  1.0000
  H   H6        1.0  0.2885832104530417  0.23892031482637832  0.6822454859970328  1.0000
  H   H7        1.0  0.3871168174160159  0.22012023006851364  0.5397641396660622  1.0000
  C   C14       1.0  0.8357541111627158  0.03809311285376937  0.567452115096718  1.0000
  C   C15       1.0  0.8399286075610287  0.026564256959887397  0.7039582213783966  1.0000
  C   C16       1.0  0.8419768384917248  0.9035839857525132  0.7731323219021777  1.0000
  C   C17       1.0  0.8397955030992954  0.7912767060165661  0.7039734340117352  1.0000
  C   C18       1.0  0.8356228658537354  0.8008136110941042  0.567466578064223  1.0000
  C   C19       1.0  0.8336251356629956  0.9246608477171978  0.4999700459115983  1.0000
  C   C20       1.0  0.8463853134754001  0.8924516759173065  0.9175403815713471  1.0000
  C   C21       1.0  0.8065417714544176  0.799079014120197  0.9915861514196952  1.0000
  C   C22       1.0  0.8107115684415357  0.7888366279683562  0.12748770075172522  1.0000
  C   C23       1.0  0.8545512400801017  0.8716891509151958  0.19115008917893117  1.0000
  C   C24       1.0  0.8945608131986637  0.9644881509846268  0.1184772843090135  1.0000
  C   C25       1.0  0.8904930877790795  0.9750802533793802  0.9825653028061556  1.0000
  S   S1        1.0  0.8599784248466821  0.8580860952022137  0.36553046115528043  1.0000
  C   C26       1.0  0.7900285477158648  0.9742697624801501  0.3850702996064601  1.0000
  H   H8        1.0  0.8341908241034716  0.36993956677643713  0.5154370873286549  1.0000
  H   H9        1.0  0.8406368470863989  0.11340961694899353  0.7569136895024289  1.0000
  H   H10       1.0  0.8423187589010503  0.6962741874385214  0.756732461059423  1.0000
  H   H11       1.0  0.8304051651212384  0.9327863807599233  0.3946613890510304  1.0000
  H   H12       1.0  0.83399814867093  0.4769938942238558  0.5154562264750406  1.0000
  H   H13       1.0  0.771503419290461  0.735159363051298  0.9444805393069321  1.0000
  H   H14       1.0  0.7795863083349696  0.7168422983349568  0.18321171353398347  1.0000
  H   H15       1.0  0.928858215296487  0.02846537194019017  0.16717187725110294  1.0000
  H   H16       1.0  0.922496816855611  0.04670458630149898  0.9282541072234615  1.0000
  H   H17       1.0  0.8039664914671595  0.07056205158861961  0.33619275339671295  1.0000
  H   H18       1.0  0.7819560912715092  0.9849933044343719  0.49034552908509316  1.0000
  H   H19       1.0  0.7410491469926832  0.9388062836007753  0.34295888762757376  1.0000
  C   C27       1.0  0.835711975451351  0.41933985128389145  0.18610789683312823  1.0000
  C   C28       1.0  0.7675099527618445  0.37033101564569115  0.18892544667681355  1.0000
  C   C29       1.0  0.7329322887431358  0.34560047064444355  0.07320625887658805  1.0000
  C   C30       1.0  0.7674625896957961  0.37055755832763354  0.953620567536225  1.0000
  C   C31       1.0  0.8356650020548027  0.4195669007407594  0.948810755799595  1.0000
  C   C32       1.0  0.8694084972201013  0.44368073400832503  0.06557416939845973  1.0000
  C   C33       1.0  0.6607804063142352  0.2937448004456535  0.07724176341014277  1.0000
  C   C34       1.0  0.6109396501564668  0.3424940552550812  0.9861030100848942  1.0000
  C   C35       1.0  0.5431281013434117  0.2936772134779968  0.9901651143349834  1.0000
  C   C36       1.0  0.524171543939676  0.19577596765368874  0.08485325335287786  1.0000
  C   C37       1.0  0.5733258097825766  0.145623272895153  0.17685468155477757  1.0000
  C   C38       1.0  0.641231871541444  0.19507949605032038  0.17234119726822894  1.0000
  O   O1        1.0  0.5569581278070806  0.047078768234689365  0.27367731549716945  1.0000
  C   C39       1.0  0.4902446220191686  0.9879167012328985  0.28972497702848243  1.0000
  H   H20       1.0  0.8617091398983011  0.4379559938749831  0.512491845154976  1.0000
  H   H21       1.0  0.7407702742520136  0.35294679355323444  0.28120678052804826  1.0000
  H   H22       1.0  0.741372275702446  0.3500066822062049  0.8642931770779549  1.0000
  H   H23       1.0  0.9220237840268712  0.481488149808241  0.06263215670729783  1.0000
  H   H24       1.0  0.861639019997019  0.4383028751697673  0.6195206409806935  1.0000
  H   H25       1.0  0.6241646306859779  0.4195372659971533  0.9127834661601456  1.0000
  H   H26       1.0  0.5050628319266652  0.33213534377288045  0.9198345680460904  1.0000
  H   H27       1.0  0.4712951184234832  0.15982999581663715  0.0856902006450675  1.0000
  H   H28       1.0  0.6789905993191508  0.15487187633171207  0.2424979974160497  1.0000
  H   H29       1.0  0.475905635455246  0.9394853550651857  0.20086601746752564  1.0000
  H   H30       1.0  0.4920461198321182  0.9134387874257279  0.37339514797875184  1.0000
  H   H31       1.0  0.4505854532723008  0.062239989257283794  0.3100103219687482  1.0000
  Zn  Zn1       1.0  0.7594142164361933  0.41958153504077567  0.567474449980989  1.0000
  Zn  Zn2       1.0  0.9119560728018649  0.4193245827521232  0.5674436250291957  1.0000
  C   C40       1.0  0.8356731985153802  0.4143503406085118  0.8046435008855641  1.0000
  C   C41       1.0  0.8356987561851401  0.42455741302022876  0.33027470127964675  1.0000
  C   C42       1.0  0.835644391316893  0.6566416729941038  0.562288892286728  1.0000
  C   C43       1.0  0.8357275115960211  0.18226452045536295  0.5726293790949175  1.0000
  O   O2        1.0  0.8935831601659412  0.4262052966606471  0.378646699816092  1.0000
  O   O3        1.0  0.893564534129478  0.41250645630212945  0.7562477330764965  1.0000
  O   O4        1.0  0.893540491499932  0.6081597731120589  0.5605446721171341  1.0000
  O   O5        1.0  0.8936071507476855  0.23055198919954756  0.5743496634159433  1.0000
  O   O6        1.0  0.7777630864353237  0.6083541286824485  0.5605684115979299  1.0000
  O   O7        1.0  0.777787128797427  0.4127023721408898  0.7562714033445463  1.0000
  O   O8        1.0  0.7778057549841828  0.4264011667790486  0.37866880875414055  1.0000
  O   O9        1.0  0.7778297455586799  0.2307478500582163  0.5743718697171916  1.0000
