data_image0
_chemical_formula_structural       NC8NC6H8C7H8C6ClH5Zn2C4O8
_chemical_formula_sum              "N2 C31 H21 Cl1 Zn2 O8"
_cell_length_a       17.457602349358154
_cell_length_b       9.274341958901593
_cell_length_c       10.302974078461048
_cell_angle_alpha    85.52847860728707
_cell_angle_beta     92.87591007631781
_cell_angle_gamma    91.07026823974832

_space_group_name_H-M_alt    "P 1"
_space_group_IT_number       1

loop_
  _space_group_symop_operation_xyz
  'x, y, z'

loop_
  _atom_site_type_symbol
  _atom_site_label
  _atom_site_symmetry_multiplicity
  _atom_site_fract_x
  _atom_site_fract_y
  _atom_site_fract_z
  _atom_site_occupancy
  N   N1        1.0  0.7131356788856554  0.6131633048788689  0.6253756943055186  1.0000
  C   C1        1.0  0.652351387333838  0.5621700302122884  0.6148135514337585  1.0000
  C   C2        1.0  0.5767331090732237  0.4987407414952638  0.6016837782774418  1.0000
  C   C3        1.0  0.517947690598571  0.5433344812466856  0.6765129166677102  1.0000
  C   C4        1.0  0.44375395112112936  0.4822572149493102  0.663995068931218  1.0000
  C   C5        1.0  0.38136329391610363  0.529341635768466  0.743242103975241  1.0000
  C   C6        1.0  0.3066985438199243  0.5498482570736114  0.6874768855058215  1.0000
  C   C7        1.0  0.24791429850723654  0.5942377739667966  0.7624141424413252  1.0000
  C   C8        1.0  0.17180751927723226  0.6154171127460757  0.7044335345593369  1.0000
  N   N2        1.0  0.1106306260748133  0.6324382173947565  0.6578172837760179  1.0000
  C   C9        1.0  0.2633010859731973  0.6183906417036451  0.8936247022967014  1.0000
  C   C10       1.0  0.3371786449212988  0.5983159328172198  0.9497769666746251  1.0000
  C   C11       1.0  0.3959501340726505  0.5541263390422815  0.875297083472816  1.0000
  C   C12       1.0  0.4296386072824339  0.3758340362513246  0.5752163752432446  1.0000
  C   C13       1.0  0.48841052576401195  0.33154972928492366  0.5007868041334258  1.0000
  C   C14       1.0  0.5618187810742982  0.39275177106479686  0.5138542974048297  1.0000
  H   H1        1.0  0.5298109463022762  0.6268267352134522  0.7430396230472984  1.0000
  H   H2        1.0  0.2944492593063843  0.533226185389216  0.5855024431794309  1.0000
  H   H3        1.0  0.218242653661355  0.6526813400549274  0.9524074231207533  1.0000
  H   H4        1.0  0.34890425886419896  0.6166675617487952  0.05137657347195812  1.0000
  H   H5        1.0  0.45253160557952504  0.5374799910167615  0.9214046453419305  1.0000
  H   H6        1.0  0.37344382347039357  0.3254955027530073  0.564617484490169  1.0000
  H   H7        1.0  0.47705394127879447  0.2492971471646901  0.433060955228711  1.0000
  H   H8        1.0  0.6068828180746834  0.3574953978229243  0.455583480877938  1.0000
  C   C15       1.0  0.9143252651593126  0.19934343911514094  0.6420182161844121  1.0000
  C   C16       1.0  0.923391737145091  0.28312795923883005  0.5238863962976996  1.0000
  C   C17       1.0  0.9248275476655109  0.21824338229521498  0.40639204846557564  1.0000
  C   C18       1.0  0.9163896064003192  0.06820394749139047  0.4041354742201091  1.0000
  C   C19       1.0  0.9097123895845927  0.9829274069635136  0.5215016475862218  1.0000
  C   C20       1.0  0.9094484155356981  0.04624729251797599  0.6411866272273525  1.0000
  C   C21       1.0  0.9196301400360917  0.9983696426670795  0.2780115113185553  1.0000
  H   H9        1.0  0.8505049468392403  0.27440645641758477  0.9375973379245583  1.0000
  H   H10       1.0  0.9277386202673482  0.3999464776779036  0.5220096583316933  1.0000
  H   H11       1.0  0.9317116261066389  0.2854534767465349  0.3168208936405952  1.0000
  H   H12       1.0  0.9064696695641193  0.8662662261245334  0.5195795473517582  1.0000
  H   H13       1.0  0.8695314994125646  0.7467179086686431  0.8421361554253338  1.0000
  H   H14       1.0  0.9799470113887084  0.9717474831883167  0.26166786373980044  1.0000
  H   H15       1.0  0.8972640003680572  0.07210236363916557  0.19516671873302127  1.0000
  H   H16       1.0  0.8842441365735206  0.8974817292183481  0.2803164676457759  1.0000
  C   C22       1.0  0.9118868560122354  0.6227953948840603  0.26035991447682694  1.0000
  C   C23       1.0  0.8994075686395238  0.4723767571546711  0.2686517646734523  1.0000
  C   C24       1.0  0.8932157259853037  0.39774312800072886  0.15580916660466704  1.0000
  C   C25       1.0  0.899407602474359  0.4723768402565977  0.03354386842208501  1.0000
  C   C26       1.0  0.9118868544844495  0.6227953203540044  0.022844933463665784  1.0000
  C   C27       1.0  0.9180656808357389  0.6972714434314482  0.1369010320729811  1.0000
  Cl  Cl1       1.0  0.8776261339006195  0.20983451533069883  0.16767120031745963  1.0000
  H   H17       1.0  0.9165880304318674  0.6794555209391522  0.5845394928084088  1.0000
  H   H18       1.0  0.8944442750671565  0.41255175285414847  0.362474857695247  1.0000
  H   H19       1.0  0.8944443287827346  0.4125517348767768  0.9472738960158765  1.0000
  H   H20       1.0  0.9276900474115327  0.8132788099456463  0.1295777804861975  1.0000
  H   H21       1.0  0.9165878845567367  0.6794555011011598  0.6915118504279508  1.0000
  Zn  Zn1       1.0  0.8278441565813153  0.6187217612096981  0.6347451360298797  1.0000
  Zn  Zn2       1.0  0.9959222022105034  0.6268679381308058  0.6484584826640205  1.0000
  C   C28       1.0  0.9119182130959836  0.617050623600053  0.8787244117399662  1.0000
  C   C29       1.0  0.9118499706256389  0.6285409841570453  0.40447948234082864  1.0000
  C   C30       1.0  0.9103663106538241  0.886164259553184  0.6361700132369728  1.0000
  C   C31       1.0  0.91340182569098  0.35942561292379693  0.6470339470813231  1.0000
  O   O1        1.0  0.9756223701495028  0.6335543970681861  0.4580514756219243  1.0000
  O   O2        1.0  0.9757131674077174  0.618218882635901  0.8355601585950467  1.0000
  O   O3        1.0  0.9744591267103282  0.8355315054004439  0.6396956940635867  1.0000
  O   O4        1.0  0.9768763534338412  0.41624178183941796  0.6539158381214301  1.0000
  O   O5        1.0  0.8468899480011806  0.8293479147227654  0.6292877758859474  1.0000
  O   O6        1.0  0.8481439787185906  0.6120370244600193  0.8251521694933835  1.0000
  O   O7        1.0  0.8480531818007797  0.6273724886443646  0.44764192569067807  1.0000
  O   O8        1.0  0.8493071651413716  0.41005986310150117  0.6435063855356159  1.0000
