data_image0
_chemical_formula_structural       NC8NC6H8C12ClH7C13OH11Zn2C4O8
_chemical_formula_sum              "N2 C43 H26 Cl1 O9 Zn2"
_cell_length_a       17.457602349358154
_cell_length_b       10.299768534541528
_cell_length_c       10.299153481560891
_cell_angle_alpha    85.58394017871096
_cell_angle_beta     92.89209155736368
_cell_angle_gamma    91.7063886151948

_space_group_name_H-M_alt    "P 1"
_space_group_IT_number       1

loop_
  _space_group_symop_operation_xyz
  'x, y, z'

loop_
  _atom_site_type_symbol
  _atom_site_label
  _atom_site_symmetry_multiplicity
  _atom_site_fract_x
  _atom_site_fract_y
  _atom_site_fract_z
  _atom_site_occupancy
  N   N1        1.0  0.7224631887410334  0.45228394060416227  0.6265239272501844  1.0000
  C   C1        1.0  0.6613747071876614  0.40635488173427564  0.6159062979183418  1.0000
  C   C2        1.0  0.5853780558358931  0.34922485058098385  0.6027075094294707  1.0000
  C   C3        1.0  0.52686999486125  0.3894157856047331  0.6776084739844299  1.0000
  C   C4        1.0  0.45231193437708705  0.33440424331843327  0.6650242145042136  1.0000
  C   C5        1.0  0.39021416707962014  0.37684004488724354  0.7443471721260728  1.0000
  C   C6        1.0  0.3156613673279793  0.39528646017881414  0.6885829464025373  1.0000
  C   C7        1.0  0.257153287276664  0.43529351332366417  0.7635918607245882  1.0000
  C   C8        1.0  0.1811620641577502  0.45434490904404085  0.7056121410145575  1.0000
  N   N2        1.0  0.12007803609313682  0.4696558516096485  0.6589965971909757  1.0000
  C   C9        1.0  0.2727059783143482  0.4570974902964793  0.8948735396222685  1.0000
  C   C10       1.0  0.3464742148635313  0.4390402109188032  0.9510253869471791  1.0000
  C   C11       1.0  0.4049708032849844  0.39921339025860747  0.8764742116778041  1.0000
  C   C12       1.0  0.4375502044611434  0.23852378960297793  0.5761060111643652  1.0000
  C   C13       1.0  0.4960466693132144  0.1986116894295129  0.5016050697723535  1.0000
  C   C14       1.0  0.5698200805315391  0.2537358221065886  0.5147392966486843  1.0000
  H   H1        1.0  0.5392398202750093  0.46463571645126606  0.7442435204944744  1.0000
  H   H2        1.0  0.30329588860897544  0.3802762981467358  0.5865554119735283  1.0000
  H   H3        1.0  0.2278610370023659  0.4880031080174452  0.9537119330731577  1.0000
  H   H4        1.0  0.35832621356616434  0.4556078763069908  0.05267970736084582  1.0000
  H   H5        1.0  0.46146154380017534  0.3842397555038594  0.9225812660653172  1.0000
  H   H6        1.0  0.3810551065667306  0.1931843806446556  0.5654522851481167  1.0000
  H   H7        1.0  0.4841906583634222  0.12450774274082742  0.43377171239668444  1.0000
  H   H8        1.0  0.614664989104668  0.22196071278457377  0.4564120096568176  1.0000
  C   C15       1.0  0.9212019168409197  0.07960148416051971  0.6427525304507669  1.0000
  C   C16       1.0  0.9262314644985061  0.08933536669347619  0.5066933801319689  1.0000
  C   C17       1.0  0.9288537358762297  0.9771314605356592  0.43776453934728093  1.0000
  C   C18       1.0  0.9263780002636086  0.8540540572731455  0.5067208375761878  1.0000
  C   C19       1.0  0.9213466477132215  0.8423285668230658  0.6427797784416873  1.0000
  C   C20       1.0  0.9187873468683018  0.9556603614653001  0.7100337400512913  1.0000
  C   C21       1.0  0.9341755981244063  0.9884828091767895  0.2938253840661229  1.0000
  C   C22       1.0  0.8905153724865917  0.0800872305801561  0.2157953744696546  1.0000
  C   C23       1.0  0.8955928211623603  0.09057863820111889  0.08032931869267701  1.0000
  C   C24       1.0  0.9442561132352112  0.00998387024438707  0.02119532783820266  1.0000
  C   C25       1.0  0.987903505309393  0.9186905616333231  0.09771305796063469  1.0000
  C   C26       1.0  0.9829623065248742  0.9078128610907591  0.23320488445001097  1.0000
  Cl  Cl1       1.0  0.9505410404059246  0.023389207626617555  0.8512223869582433  1.0000
  H   H9        1.0  0.9291803305816326  0.18445664949020912  0.45420124166606457  1.0000
  H   H10       1.0  0.9273246131942897  0.7672416250254978  0.45385162099719994  1.0000
  H   H11       1.0  0.9149065053645525  0.9473828965050578  0.8149970478778047  1.0000
  H   H12       1.0  0.8517316838529623  0.1423863426384402  0.25937176565493125  1.0000
  H   H13       1.0  0.861518908775645  0.16118266125290037  0.021434386026938593  1.0000
  H   H14       1.0  0.025831271230952985  0.8563068007573689  0.052377274623255594  1.0000
  H   H15       1.0  0.018009529906684474  0.8375441067243691  0.2906849902148625  1.0000
  C   C27       1.0  0.9212083585913109  0.4608147365362982  0.261388239891984  1.0000
  C   C28       1.0  0.8418820691015616  0.43296900539159955  0.255580756101935  1.0000
  C   C29       1.0  0.8018011644639298  0.41901948046774334  0.13548005304217803  1.0000
  C   C30       1.0  0.8420631424805063  0.4332942119476151  0.020287582952361886  1.0000
  C   C31       1.0  0.9213402147362773  0.4611153588242256  0.024144099406703697  1.0000
  C   C32       1.0  0.9604499189913656  0.474709565578217  0.14519009067212285  1.0000
  C   C33       1.0  0.7179337157688342  0.38959276681256605  0.130313183672232  1.0000
  C   C34       1.0  0.6694227311052523  0.4527093488405088  0.03368505218214479  1.0000
  C   C35       1.0  0.590498519353162  0.4250610169616533  0.02890067951748332  1.0000
  C   C36       1.0  0.5587567231574371  0.332962981998548  0.11976653664136472  1.0000
  C   C37       1.0  0.6067532229389888  0.27092018963512743  0.21727120337527528  1.0000
  C   C38       1.0  0.6856810687193488  0.2985390332273823  0.2222340218847787  1.0000
  C   C39       1.0  0.4737302312377203  0.3059617363653051  0.1167384689398734  1.0000
  O   O1        1.0  0.4392868675735587  0.3920439758953702  0.19343447916393597  1.0000
  H   H16       1.0  0.07084324566629308  0.5142003039455127  0.47957058330915286  1.0000
  H   H17       1.0  0.8109490259503329  0.4238539149836984  0.3445299197345555  1.0000
  H   H18       1.0  0.8116208445921422  0.4209120354848974  0.9276220588411026  1.0000
  H   H19       1.0  0.02159828258223517  0.49617247611614407  0.14888052416121256  1.0000
  H   H20       1.0  0.6923704567984593  0.5249673498827179  0.9630029403854108  1.0000
  H   H21       1.0  0.5541068774815002  0.475750781088987  0.9544488496377026  1.0000
  H   H22       1.0  0.5830984577141803  0.20083766952856674  0.28933549742551845  1.0000
  H   H23       1.0  0.7216115737780054  0.24762862392225451  0.2971714007493216  1.0000
  H   H24       1.0  0.4615340954434969  0.2036426098462094  0.15455925036150053  1.0000
  H   H25       1.0  0.4494482953640534  0.31826598384465177  0.014624806025673068  1.0000
  H   H26       1.0  0.3835105695831595  0.37025371350433933  0.18817552965322082  1.0000
  Zn  Zn1       1.0  0.8372062454009852  0.45729361912262445  0.6359023368681156  1.0000
  Zn  Zn2       1.0  0.005334965000737492  0.4646355294719937  0.6496288199710292  1.0000
  C   C40       1.0  0.9213125831875768  0.45588478538693944  0.8799665959394857  1.0000
  C   C41       1.0  0.921230463507487  0.46604608204938525  0.4055648383205295  1.0000
  C   C42       1.0  0.9213144404757178  0.6981547353874935  0.6375990478363778  1.0000
  C   C43       1.0  0.9212285485646753  0.22377456926973438  0.6479324509241833  1.0000
  O   O2        1.0  0.9850418539221661  0.47058232037134357  0.459160950421289  1.0000
  O   O3        1.0  0.9851070004648343  0.4569199072709891  0.8367881930147012  1.0000
  O   O4        1.0  0.9851076403738374  0.6525559187908303  0.6410746129565836  1.0000
  O   O5        1.0  0.9850411566271514  0.2749463155980405  0.654874428418849  1.0000
  O   O6        1.0  0.8574999964004902  0.6469828304925558  0.6306567237292893  1.0000
  O   O7        1.0  0.8574993567720764  0.451348379247788  0.8263702345958552  1.0000
  O   O8        1.0  0.8574342100019596  0.4650107464790465  0.448741430567365  1.0000
  O   O9        1.0  0.8574335127188755  0.2693747324551825  0.6444550059344765  1.0000
