data_image0
_chemical_formula_structural       NC5N2C2NH4C6NH7C9H9Zn2C4O8
_chemical_formula_sum              "N5 C26 H20 Zn2 O8"
_cell_length_a       13.87973921873968
_cell_length_b       9.274771166103582
_cell_length_c       9.273585224739813
_cell_angle_alpha    86.03363261937257
_cell_angle_beta     90.10207289864502
_cell_angle_gamma    90.59705032410349

_space_group_name_H-M_alt    "P 1"
_space_group_IT_number       1

loop_
  _space_group_symop_operation_xyz
  'x, y, z'

loop_
  _atom_site_type_symbol
  _atom_site_label
  _atom_site_symmetry_multiplicity
  _atom_site_fract_x
  _atom_site_fract_y
  _atom_site_fract_z
  _atom_site_occupancy
  N   N1        1.0  0.9162178785859566  0.5625175350195633  0.4073122740873145  1.0000
  C   C1        1.0  0.8432081580118158  0.5864849417472829  0.3506372616486062  1.0000
  C   C2        1.0  0.752532767115328  0.6162547982924323  0.28024077217491716  1.0000
  C   C3        1.0  0.6659716197111323  0.5862933103844504  0.35348443919901174  1.0000
  C   C4        1.0  0.5796533655628072  0.6162547340539264  0.28024081219027286  1.0000
  C   C5        1.0  0.48873103513747507  0.5864847959683186  0.3506371587017687  1.0000
  N   N2        1.0  0.41552244725345616  0.5625175102794512  0.40731226314059454  1.0000
  N   N3        1.0  0.5815249950077624  0.6735028150110032  0.14139766647349883  1.0000
  C   C6        1.0  0.6664524357394075  0.7034310531624371  0.07219682822754492  1.0000
  C   C7        1.0  0.6666800615584242  0.7624031166754869  0.9183593411240611  1.0000
  N   N4        1.0  0.7511278933579145  0.6735027684458852  0.14139767730823838  1.0000
  H   H1        1.0  0.6657845689368104  0.5404842491307842  0.4642840146959293  1.0000
  H   H2        1.0  0.7321262990420365  0.8300631818569114  0.8958424766390332  1.0000
  H   H3        1.0  0.6659636581807905  0.6717084549545215  0.8463138639048187  1.0000
  H   H4        1.0  0.6021214633839574  0.8300611099088622  0.8958417145110597  1.0000
  C   C8        1.0  0.16291786531806562  0.13892892369396437  0.4080978724350264  1.0000
  C   C9        1.0  0.1405850251895262  0.22093132958498146  0.2792093776248954  1.0000
  C   C10       1.0  0.12724651890287464  0.15456730935609508  0.1495031412225205  1.0000
  C   C11       1.0  0.136290176207444  0.004813888199834743  0.1477459252429152  1.0000
  C   C12       1.0  0.15683919915650543  0.9214741089783525  0.27486386896691006  1.0000
  C   C13       1.0  0.16883162362351944  0.9860951639939536  0.4065391935334175  1.0000
  N   N5        1.0  0.10550382852213012  0.23965485565973396  0.019198087174034484  1.0000
  H   H5        1.0  0.2717441394995874  0.22178626413423275  0.7235276722000041  1.0000
  H   H6        1.0  0.13572649309121365  0.33751842668006815  0.27865573847227565  1.0000
  H   H7        1.0  0.12648353786286304  0.9523151868382528  0.04795006242830957  1.0000
  H   H8        1.0  0.16107991664341825  0.8052682562525362  0.2707360907466325  1.0000
  H   H9        1.0  0.2382282635959363  0.6912039607959618  0.6211431408413342  1.0000
  H   H10       1.0  0.09886571873919103  0.3517282829848396  0.01915127441299802  1.0000
  H   H11       1.0  0.095790882661271  0.19119738586217203  0.9217724948397518  1.0000
  C   C14       1.0  0.16534045214385373  0.5582222515110542  0.9840748879092782  1.0000
  C   C15       1.0  0.25109707520960467  0.5260955914010814  0.060090774635688016  1.0000
  C   C16       1.0  0.3382482145212362  0.5069516341062192  0.9878656273887532  1.0000
  C   C17       1.0  0.3388649027080848  0.5207453338308946  0.8357810224591731  1.0000
  C   C18       1.0  0.2541189830725348  0.5501599314003887  0.7587664063179127  1.0000
  C   C19       1.0  0.16640902651837974  0.5668017916280854  0.8305621430087253  1.0000
  C   C20       1.0  0.4273169404877546  0.4738723418530342  0.07944169964467918  1.0000
  C   C21       1.0  0.5019627942292906  0.3749009043943416  0.019385858808208978  1.0000
  C   C22       1.0  0.5230636127511346  0.5361844047407334  0.02299299476293571  1.0000
  H   H12       1.0  0.006182298182836773  0.5393847081048495  0.2653937618004083  1.0000
  H   H13       1.0  0.25058956619414174  0.5191342646477506  0.177273091536452  1.0000
  H   H14       1.0  0.4041194657508979  0.5077119993807038  0.7748706781254393  1.0000
  H   H15       1.0  0.023807471414772678  0.6692932950452598  0.5417034442101332  1.0000
  H   H16       1.0  0.42091968174848815  0.46456941772307364  0.19922066497360813  1.0000
  H   H17       1.0  0.4887450726158665  0.33778246323704175  0.9098763169304327  1.0000
  H   H18       1.0  0.5414767248841237  0.30736467531984  0.10303141562838136  1.0000
  H   H19       1.0  0.5226180517405972  0.5968592995545801  0.9156622089932678  1.0000
  H   H20       1.0  0.574901246912148  0.5629374198824824  0.10875126424018443  1.0000
  Zn  Zn1       1.0  0.06030637611591394  0.5625137468721211  0.4073206038224311  1.0000
  Zn  Zn2       1.0  0.2714338677850332  0.5625096022041882  0.4073157702078587  1.0000
  C   C23       1.0  0.16616477517594075  0.559433645415834  0.6705685025609234  1.0000
  C   C24       1.0  0.1655777871141202  0.5655915250731902  0.14406800953030752  1.0000
  C   C25       1.0  0.16770157628751448  0.8259044683012506  0.4010903811341047  1.0000
  C   C26       1.0  0.16404090195882182  0.2991189699309684  0.41354621098851263  1.0000
  O   O1        1.0  0.2457791777576528  0.5680568547483604  0.19776133994850098  1.0000
  O   O2        1.0  0.246204257431712  0.5569640776450382  0.6168710906485413  1.0000
  O   O3        1.0  0.2474441655766928  0.7721426523192843  0.3992655982591111  1.0000
  O   O4        1.0  0.24453919750477326  0.3528782892989264  0.4153667242540844  1.0000
  O   O5        1.0  0.08720097434872454  0.7721450597802909  0.3992696497702708  1.0000
  O   O6        1.0  0.08596107820001886  0.5569682173657577  0.61687506212238  1.0000
  O   O7        1.0  0.08553599605167905  0.5680609266398272  0.19776357867067063  1.0000
  O   O8        1.0  0.08429601585924895  0.35288235196848894  0.4153690710541664  1.0000
