data_image0
_chemical_formula_structural       NC8NC6H8C13OH12C13NH13Zn2C4O8
_chemical_formula_sum              "N3 C44 H33 O9 Zn2"
_cell_length_a       17.457602349358154
_cell_length_b       10.299150109392551
_cell_length_c       10.299780419254976
_cell_angle_alpha    85.552664501727
_cell_angle_beta     92.86230706440831
_cell_angle_gamma    91.67070309183428

_space_group_name_H-M_alt    "P 1"
_space_group_IT_number       1

loop_
  _space_group_symop_operation_xyz
  'x, y, z'

loop_
  _atom_site_type_symbol
  _atom_site_label
  _atom_site_symmetry_multiplicity
  _atom_site_fract_x
  _atom_site_fract_y
  _atom_site_fract_z
  _atom_site_occupancy
  N   N1        1.0  0.7223377471984457  0.452634086140439  0.6260229498841419  1.0000
  C   C1        1.0  0.6612699743992823  0.4067035524534861  0.6154251352761444  1.0000
  C   C2        1.0  0.5852990796135028  0.3495716853516204  0.6022509932329181  1.0000
  C   C3        1.0  0.5267525765635395  0.3897522603022694  0.6771297985655726  1.0000
  C   C4        1.0  0.4522192787999035  0.33473892793446725  0.6645692624045072  1.0000
  C   C5        1.0  0.3900808484075811  0.3771637484347261  0.7438688055858413  1.0000
  C   C6        1.0  0.3155383233681844  0.39562141559713  0.688101031717486  1.0000
  C   C7        1.0  0.2569918375515015  0.4356180760466871  0.763087855094118  1.0000
  C   C8        1.0  0.18101134586247836  0.45468116131437125  0.7051044992747786  1.0000
  N   N2        1.0  0.11993594824047933  0.47000150178249145  0.6584860346521719  1.0000
  C   C9        1.0  0.2724955983125694  0.45740033595289326  0.8943508529825713  1.0000
  C   C10       1.0  0.3462532925019834  0.4393317643424281  0.9505060587033106  1.0000
  C   C11       1.0  0.4047880765589282  0.39951526828081796  0.8759768660564637  1.0000
  C   C12       1.0  0.43752145464693853  0.23886724906943524  0.5756973278586925  1.0000
  C   C13       1.0  0.49605613192154424  0.19896545833512636  0.5012184007417446  1.0000
  C   C14       1.0  0.5698045673804218  0.25409129167080136  0.5143288172338387  1.0000
  H   H1        1.0  0.5390732339740897  0.4649658616645342  0.7437287758017663  1.0000
  H   H2        1.0  0.303210137582746  0.3806282728872554  0.5860872135280959  1.0000
  H   H3        1.0  0.22762071159244712  0.48829776657625856  0.9531721154295921  1.0000
  H   H4        1.0  0.3580675231218753  0.45588259063092806  0.05214604480871998  1.0000
  H   H5        1.0  0.4612702161835382  0.3845323505962447  0.9220867388064771  1.0000
  H   H6        1.0  0.3810468530401556  0.1935264148435482  0.5650631748454495  1.0000
  H   H7        1.0  0.4842492368356148  0.12486813556718834  0.4334207381690556  1.0000
  H   H8        1.0  0.6146795928493587  0.2223242150736384  0.45601898404671287  1.0000
  C   C15       1.0  0.9212128025093229  0.07992148191655167  0.6424048142144516  1.0000
  C   C16       1.0  0.9197808827586227  0.06808357768623452  0.7790928140984907  1.0000
  C   C17       1.0  0.9189881510651341  0.9449439391435707  0.8481274007714947  1.0000
  C   C18       1.0  0.9196330165203659  0.8328216974658116  0.7787173615829341  1.0000
  C   C19       1.0  0.9210682255307461  0.8427043573891844  0.6421160255585427  1.0000
  C   C20       1.0  0.9218518413136071  0.9667145588414616  0.5747582117842209  1.0000
  C   C21       1.0  0.9174666655400959  0.933402218464702  0.9926371426691724  1.0000
  C   C22       1.0  0.8702825237127805  0.8384752700419957  0.056803172844060675  1.0000
  C   C23       1.0  0.8688253900143637  0.8276948214713271  0.19278462027165566  1.0000
  C   C24       1.0  0.915029250321851  0.9107040308793197  0.267099364709235  1.0000
  C   C25       1.0  0.9614793150685791  0.006552684236667207  0.20351594292235664  1.0000
  C   C26       1.0  0.9629542574287409  0.017509707673652564  0.06753566083468276  1.0000
  C   C27       1.0  0.9118503504254424  0.9014034978581307  0.4129198748820343  1.0000
  O   O1        1.0  0.8545036750996609  0.9820824394161596  0.4484765817633415  1.0000
  H   H9        1.0  0.9234171897626686  0.3095371451297002  0.38435911340686335  1.0000
  H   H10       1.0  0.9182152649440021  0.15479840744010762  0.8319713086324358  1.0000
  H   H11       1.0  0.9200634933523478  0.7377277067446183  0.8315837779619013  1.0000
  H   H12       1.0  0.9229566900880769  0.975053463895219  0.4693933366248588  1.0000
  H   H13       1.0  0.9215686198852432  0.5190278514431336  0.5895701447648121  1.0000
  H   H14       1.0  0.8335999503751373  0.7738548085528334  0.0017016369433066065  1.0000
  H   H15       1.0  0.8314984233813109  0.7547439148818103  0.240110369649581  1.0000
  H   H16       1.0  0.996748626713517  0.07266451964134135  0.2592482629177263  1.0000
  H   H17       1.0  0.00030681842312962627  0.09090731232859438  0.02101861015683348  1.0000
  H   H18       1.0  0.9682771468992829  0.9317047685201781  0.4576953061039254  1.0000
  H   H19       1.0  0.8993775145577081  0.7988442703587888  0.44971246781902213  1.0000
  H   H20       1.0  0.8547745829259951  0.9724346419064412  0.5451212740026623  1.0000
  C   C28       1.0  0.9211927705783877  0.46123034498244303  0.26091055181961265  1.0000
  C   C29       1.0  0.9767196086820839  0.5626929175991933  0.2567466706214392  1.0000
  C   C30       1.0  0.0047963246681128596  0.614197514666665  0.13748801300224134  1.0000
  C   C31       1.0  0.9766142079186035  0.5628605601176537  0.021437826446153222  1.0000
  C   C32       1.0  0.9210882817072888  0.461395507784889  0.023610229661044983  1.0000
  C   C33       1.0  0.8936863820367662  0.4111519098660765  0.1438259596258309  1.0000
  C   C34       1.0  0.06354153885591418  0.7215337418975973  0.13417477293518965  1.0000
  C   C35       1.0  0.05833551612855526  0.8258924077666271  0.03788543436793557  1.0000
  C   C36       1.0  0.11365273690088668  0.9268332410144942  0.03485467594114167  1.0000
  C   C37       1.0  0.17480861760829347  0.9258011822364568  0.1285237460699371  1.0000
  C   C38       1.0  0.18075014884735555  0.8211957841085281  0.2238164661599198  1.0000
  C   C39       1.0  0.12544879550799015  0.7202309429958681  0.22702129977123262  1.0000
  C   C40       1.0  0.23537130220502925  0.03267274992916746  0.12297527768609573  1.0000
  N   N3        1.0  0.29418992266158783  0.002587439973380511  0.034911677431952004  1.0000
  H   H21       1.0  0.9000656332413475  0.4225228498041159  0.5899565676842788  1.0000
  H   H22       1.0  0.9975083650313217  0.6031100204718836  0.3462995626757712  1.0000
  H   H23       1.0  0.9988474604341777  0.6009897013792739  0.9294321346289792  1.0000
  H   H24       1.0  0.8508502106284379  0.3328771197536177  0.1462696615638961  1.0000
  H   H25       1.0  0.89991579698845  0.4227550321736257  0.6969815081048361  1.0000
  H   H26       1.0  0.011019399044571943  0.8301725282103752  0.9657181606136551  1.0000
  H   H27       1.0  0.10869644033941284  0.006023217949256317  0.9595819070187787  1.0000
  H   H28       1.0  0.22835102218112113  0.8175804136570242  0.29548022841191757  1.0000
  H   H29       1.0  0.13174241205447879  0.6400821415780685  0.3009377399925335  1.0000
  H   H30       1.0  0.20884449005714822  0.12654816695159532  0.08749437185667319  1.0000
  H   H31       1.0  0.26182633856726323  0.04513957258654021  0.22198785395842768  1.0000
  H   H32       1.0  0.33288956964227645  0.08197556995235677  0.02810369574448157  1.0000
  H   H33       1.0  0.324983940866927  0.9236227361253425  0.07822758054147405  1.0000
  Zn  Zn1       1.0  0.8370759990902843  0.4576424658079898  0.6353985943195193  1.0000
  Zn  Zn2       1.0  0.00519768266013032  0.46498247582900243  0.6491210262447764  1.0000
  C   C41       1.0  0.9211072800995794  0.4561901894130449  0.879445507031237  1.0000
  C   C42       1.0  0.9211682372063204  0.4664364711421442  0.405074390221197  1.0000
  C   C43       1.0  0.9210923132418012  0.698520902532253  0.6369953589006045  1.0000
  C   C44       1.0  0.9211831469821918  0.22410419511805088  0.6475246034953099  1.0000
  O   O2        1.0  0.984961307397739  0.4709635240395394  0.45866468488764167  1.0000
  O   O3        1.0  0.9849146779036533  0.45723305441110934  0.8362698472242265  1.0000
  O   O4        1.0  0.9849017317196018  0.65291813268768  0.6404895665205583  1.0000
  O   O5        1.0  0.98497419622483  0.27527845252812394  0.6544448635354534  1.0000
  O   O6        1.0  0.8572994281539057  0.6473464866054959  0.6300747523392183  1.0000
  O   O7        1.0  0.857312374048185  0.45166296873043765  0.8258549632097816  1.0000
  O   O8        1.0  0.8573590038158249  0.4653933927636864  0.4482482395718397  1.0000
  O   O9        1.0  0.8573718926281977  0.26970831198374334  0.644028515585884  1.0000
