data_image0
_chemical_formula_structural       NC8NC6H8C7NH3C6SCH6Zn2C4O8
_chemical_formula_sum              "N3 C32 H17 S1 Zn2 O8"
_cell_length_a       17.457602349358154
_cell_length_b       10.302819778424748
_cell_length_c       10.302812801239593
_cell_angle_alpha    85.56070422118889
_cell_angle_beta     92.87590592568559
_cell_angle_gamma    91.68806980205999

_space_group_name_H-M_alt    "P 1"
_space_group_IT_number       1

loop_
  _space_group_symop_operation_xyz
  'x, y, z'

loop_
  _atom_site_type_symbol
  _atom_site_label
  _atom_site_symmetry_multiplicity
  _atom_site_fract_x
  _atom_site_fract_y
  _atom_site_fract_z
  _atom_site_occupancy
  N   N1        1.0  0.7224250345995195  0.4523852112166298  0.6269383544012799  1.0000
  C   C1        1.0  0.6613471019949267  0.4064742485730197  0.6163259694647476  1.0000
  C   C2        1.0  0.585363570801348  0.34936672363315074  0.6031337015599527  1.0000
  C   C3        1.0  0.5268349393420166  0.38951597113482095  0.6780078031547243  1.0000
  C   C4        1.0  0.4522894908758678  0.3345260511990309  0.6654297799954282  1.0000
  C   C5        1.0  0.3901699629259024  0.37691774285241175  0.7447242932924979  1.0000
  C   C6        1.0  0.3156233012585047  0.39538054314295423  0.6889783402639245  1.0000
  C   C7        1.0  0.2570946669523238  0.4353459219309484  0.7639603615433642  1.0000
  C   C8        1.0  0.1811098500454959  0.45441439236038733  0.705999645062459  1.0000
  N   N2        1.0  0.1200309737597003  0.4697390648651247  0.6593993800116666  1.0000
  C   C9        1.0  0.2726205315917565  0.4570915654582543  0.8951966933724126  1.0000
  C   C10       1.0  0.3463824892346127  0.4390176304727821  0.9513301225158107  1.0000
  C   C11       1.0  0.40489951860450685  0.3992322492122373  0.8768056784570617  1.0000
  C   C12       1.0  0.4375613197559309  0.23870967735954718  0.5765451866225522  1.0000
  C   C13       1.0  0.4960782330540802  0.19883902262456418  0.5020709624321444  1.0000
  C   C14       1.0  0.5698389158413687  0.2539412821431162  0.5151987622601997  1.0000
  H   H1        1.0  0.5391789770119001  0.4646868606735907  0.7446175422236898  1.0000
  H   H2        1.0  0.3032783039372516  0.38041512964868324  0.5869859789013305  1.0000
  H   H3        1.0  0.2277595575729843  0.4879646374231442  0.9540140084369285  1.0000
  H   H4        1.0  0.3582137755455785  0.45554022258967064  0.05294934095628489  1.0000
  H   H5        1.0  0.4613851312283092  0.3842449827021799  0.9228976146548539  1.0000
  H   H6        1.0  0.38107666517768846  0.19338820023709324  0.5658966962033611  1.0000
  H   H7        1.0  0.4842480052243516  0.12478425136428604  0.4342632794653052  1.0000
  H   H8        1.0  0.6146999337500618  0.22219878056837872  0.45689241118409213  1.0000
  C   C15       1.0  0.9212316650178035  0.07980925117401871  0.6431747543049011  1.0000
  C   C16       1.0  0.87644978525479  0.0679557160670501  0.7532071503977371  1.0000
  C   C17       1.0  0.8541703588135092  0.9449558895220176  0.8079493066515947  1.0000
  C   C18       1.0  0.8764498471750721  0.8326547089589444  0.7532071597076431  1.0000
  C   C19       1.0  0.9212316776638811  0.8423052789082452  0.6431747939249102  1.0000
  C   C20       1.0  0.9433886564495615  0.9663771704301661  0.588733510671092  1.0000
  C   C21       1.0  0.8082624413704037  0.93393339028249  0.9207486888537  1.0000
  N   N3        1.0  0.7713674978695717  0.9250749379525548  0.011402388715959442  1.0000
  H   H9        1.0  0.85878831109734  0.15413948613719608  0.7966024916274979  1.0000
  H   H10       1.0  0.8587884068504505  0.7379898861920662  0.7966024686022839  1.0000
  H   H11       1.0  0.9779228596967499  0.9746687536911676  0.5038804910325576  1.0000
  C   C22       1.0  0.9212316929823591  0.46105729686127955  0.2619263217372134  1.0000
  C   C23       1.0  0.8953578858564438  0.5893989983967624  0.24861668154646252  1.0000
  C   C24       1.0  0.8822861030267084  0.6530576547328016  0.12500249146802744  1.0000
  C   C25       1.0  0.8953578166905831  0.5893988590921795  0.013465506210423413  1.0000
  C   C26       1.0  0.9212316432183905  0.46105728594001627  0.024423221303961688  1.0000
  C   C27       1.0  0.9340184742209404  0.3975012393967114  0.14918129941333325  1.0000
  S   S1        1.0  0.8493860566213719  0.8171361611721163  0.10950517663539071  1.0000
  C   C28       1.0  0.7484684509139461  0.7673710817766253  0.10477827629163272  1.0000
  H   H12       1.0  0.8850797620449424  0.6403766459431822  0.3338966176535423  1.0000
  H   H13       1.0  0.885079608442199  0.6403764522191187  0.9185462921311224  1.0000
  H   H14       1.0  0.9539621761449015  0.29849638230791986  0.15854006010736232  1.0000
  H   H15       1.0  0.7348639435475238  0.7090210036295297  0.020021262188832045  1.0000
  H   H16       1.0  0.7348642721389902  0.7090223300513011  0.19625598104900724  1.0000
  H   H17       1.0  0.7129602671350207  0.8554331601794087  0.09494284691732635  1.0000
  Zn  Zn1       1.0  0.837165519911922  0.45738967687135945  0.6363134012955673  1.0000
  Zn  Zn2       1.0  0.005290474196594451  0.464723954625843  0.6500349622858053  1.0000
  C   C29       1.0  0.9212299429383255  0.45588510165316154  0.8802948537198081  1.0000
  C   C30       1.0  0.9212278870894771  0.46623024805577357  0.40605378712688545  1.0000
  C   C31       1.0  0.9212277243935801  0.6981771642523384  0.6380009366299744  1.0000
  C   C32       1.0  0.9212300482649023  0.22393662312547333  0.6483477687511645  1.0000
  O   O1        1.0  0.9850291537574547  0.47074399389730565  0.459631542017211  1.0000
  O   O2        1.0  0.9850316264257886  0.45693692349886494  0.8371310723977434  1.0000
  O   O3        1.0  0.9850289748339572  0.6525907907285302  0.6414769498807478  1.0000
  O   O4        1.0  0.9850317479796338  0.275090133452349  0.6552855625080565  1.0000
  O   O5        1.0  0.8574241887560866  0.6470234955434374  0.6310627963839921  1.0000
  O   O6        1.0  0.8574268403444426  0.45137118814347943  0.826716849677218  1.0000
  O   O7        1.0  0.8574243677272289  0.46517821330196796  0.4492157583933343  1.0000
  O   O8        1.0  0.8574269619462644  0.26952434357088667  0.6448698762210059  1.0000
