data_image0
_chemical_formula_structural       NC9NC5H8C6NCH9C6NH7Zn2C4O8
_chemical_formula_sum              "N4 C31 H24 Zn2 O8"
_cell_length_a       17.807436237873137
_cell_length_b       9.273386996610926
_cell_length_c       9.274774538082513
_cell_angle_alpha    84.97283399596293
_cell_angle_beta     89.72824813723155
_cell_angle_gamma    87.7895077601149

_space_group_name_H-M_alt    "P 1"
_space_group_IT_number       1

loop_
  _space_group_symop_operation_xyz
  'x, y, z'

loop_
  _atom_site_type_symbol
  _atom_site_label
  _atom_site_symmetry_multiplicity
  _atom_site_fract_x
  _atom_site_fract_y
  _atom_site_fract_z
  _atom_site_occupancy
  N   N1        1.0  0.6938165052906856  0.5563299420095391  0.39417196433249346  1.0000
  C   C1        1.0  0.6334028529433295  0.5173355931294592  0.3819828879598455  1.0000
  C   C2        1.0  0.5582549093462557  0.4688309175733078  0.366821000333146  1.0000
  C   C3        1.0  0.540219855063414  0.3905102955320643  0.2502598959525486  1.0000
  C   C4        1.0  0.4672554530566539  0.34329291493818714  0.2354470519803371  1.0000
  C   C5        1.0  0.4112795602065147  0.37397696209060616  0.3371599086698447  1.0000
  C   C6        1.0  0.3337368074127777  0.3239239332902792  0.32150869740517063  1.0000
  C   C7        1.0  0.2711576596171109  0.4145161377681516  0.35019101102764383  1.0000
  C   C8        1.0  0.19805223332740612  0.36707300422499695  0.3353937245487528  1.0000
  C   C9        1.0  0.1344079778171854  0.46065227316753393  0.36447573483896  1.0000
  N   N2        1.0  0.0832510175088518  0.535883520418434  0.38785687398588586  1.0000
  C   C10       1.0  0.1869438837378227  0.22875124659739599  0.29188640425275425  1.0000
  C   C11       1.0  0.24866571562382742  0.13814373212750078  0.26319479164090387  1.0000
  C   C12       1.0  0.32165337613532  0.18515044709549788  0.27776769312378313  1.0000
  C   C13       1.0  0.43000380718107506  0.4528447648384197  0.45396377226592105  1.0000
  C   C14       1.0  0.5030216767862941  0.49985211376649374  0.46860397956281674  1.0000
  H   H1        1.0  0.582493821446517  0.36623237393389585  0.1706074475993382  1.0000
  H   H2        1.0  0.4543709481191128  0.2844591628164865  0.14339433184696548  1.0000
  H   H3        1.0  0.2791675936990136  0.5225350016899708  0.3821109357933301  1.0000
  H   H4        1.0  0.1306472789608205  0.19103464724727304  0.2801720906126848  1.0000
  H   H5        1.0  0.23994815517351634  0.031048019778389998  0.2299394645141115  1.0000
  H   H6        1.0  0.3686246195598429  0.11228196782717048  0.25671462454965277  1.0000
  H   H7        1.0  0.3884546357903647  0.47651091175865806  0.535055688103977  1.0000
  H   H8        1.0  0.5164233902727629  0.5600524741474806  0.5594970498789158  1.0000
  C   C15       1.0  0.8908504128519235  0.12232495513381858  0.3916860927826884  1.0000
  C   C16       1.0  0.9036233300902469  0.20626608641691724  0.2609829855004522  1.0000
  C   C17       1.0  0.9093209341303278  0.14260027282753684  0.13038654428279028  1.0000
  C   C18       1.0  0.9023274097104845  0.9926959082337016  0.12715519869169567  1.0000
  C   C19       1.0  0.8908772751904646  0.9077263595363534  0.2573835420199684  1.0000
  C   C20       1.0  0.8862243721166685  0.9698769318509342  0.39035520316004124  1.0000
  N   N3        1.0  0.9073810722378425  0.9240509369915519  0.9938748143985768  1.0000
  C   C21       1.0  0.9194444125875922  0.002540280344828002  0.8528390879878587  1.0000
  H   H9        1.0  0.9069678513515574  0.3815604968323125  0.6283742055546171  1.0000
  H   H10       1.0  0.9074503550983001  0.32272646649773873  0.25915025461136976  1.0000
  H   H11       1.0  0.9184807944873173  0.21157500206067614  0.0322029565216706  1.0000
  H   H12       1.0  0.887323052521535  0.7915317191963324  0.25516436808198995  1.0000
  H   H13       1.0  0.915027343737976  0.8339422532734642  0.7414117614401576  1.0000
  H   H14       1.0  0.9020781225077458  0.8119361773167203  0.9969536287734299  1.0000
  H   H15       1.0  0.8727792238568357  0.08378221607563162  0.8285195792866991  1.0000
  H   H16       1.0  0.9738348893243343  0.05723435078529037  0.8521899893149327  1.0000
  H   H17       1.0  0.9210627961281437  0.9257626082568019  0.7673705593800486  1.0000
  C   C22       1.0  0.8871686733957249  0.5498627497286397  0.967220391486459  1.0000
  C   C23       1.0  0.939949904638205  0.632228425533623  0.032959734787731725  1.0000
  C   C24       1.0  0.9961672354569217  0.7025295273163334  0.9511616515078574  1.0000
  C   C25       1.0  6.007054992918651e-05  0.6907732006952301  0.8021402783354041  1.0000
  C   C26       1.0  0.9475025743247938  0.6115739156010535  0.7346894709249647  1.0000
  C   C27       1.0  0.8899061205012136  0.5423391162277285  0.8148208729779354  1.0000
  N   N4        1.0  0.049812228341738825  0.7846491413576253  0.01989256626816993  1.0000
  H   H18       1.0  0.7763855638182573  0.27365542095528705  0.09540512167498605  1.0000
  H   H19       1.0  0.9385599073538798  0.6391437662691765  0.14899105078094776  1.0000
  H   H20       1.0  0.0434685292042052  0.744234530481549  0.7378131076561449  1.0000
  H   H21       1.0  0.9508753304618107  0.6073837793944658  0.6184683877438779  1.0000
  H   H22       1.0  0.8129579895336477  0.36081820976173073  0.5502947802099736  1.0000
  H   H23       1.0  0.047580714560611304  0.7938134622339241  0.1312836633829828  1.0000
  H   H24       1.0  0.0921422709321653  0.8370325730253436  0.9598734502913112  1.0000
  Zn  Zn1       1.0  0.8061989400488728  0.5504256216534718  0.3923579181661321  1.0000
  Zn  Zn2       1.0  0.9708686670779343  0.5417759719822359  0.3896828031225492  1.0000
  C   C28       1.0  0.8894183910664619  0.5380123115538356  0.6546152894294419  1.0000
  C   C29       1.0  0.8876510047677176  0.5541910072236547  0.12742554143620666  1.0000
  C   C30       1.0  0.8870763633396613  0.8097228313432951  0.3848558445915715  1.0000
  C   C31       1.0  0.8899929860161468  0.28247875587650095  0.39718506685171007  1.0000
  O   O1        1.0  0.9503042171696665  0.5523548171685877  0.18017667092030942  1.0000
  O   O2        1.0  0.9517456958818452  0.5332825326563355  0.5998333957944086  1.0000
  O   O3        1.0  0.9498536413073068  0.7526922445644051  0.3820007468241786  1.0000
  O   O4        1.0  0.9521962151477591  0.3329451194959565  0.39800921257853394  1.0000
  O   O5        1.0  0.8248713357853187  0.7592564770930901  0.38403150961543897  1.0000
  O   O6        1.0  0.8267633806444987  0.5398484996960535  0.601864078913328  1.0000
  O   O7        1.0  0.825321896652939  0.5589207493182815  0.18220561899435173  1.0000
  O   O8        1.0  0.8272138950337481  0.33951104036355106  0.40003826886987426  1.0000
