data_image0
_chemical_formula_structural       NC9NC3NH7C8H6C7NC2NH8Zn2C4O8
_chemical_formula_sum              "N5 C33 H21 Zn2 O8"
_cell_length_a       16.053384444249904
_cell_length_b       9.27514070457351
_cell_length_c       9.27399911348925
_cell_angle_alpha    85.20391567868208
_cell_angle_beta     89.45501548333611
_cell_angle_gamma    89.76770978158073

_space_group_name_H-M_alt    "P 1"
_space_group_IT_number       1

loop_
  _space_group_symop_operation_xyz
  'x, y, z'

loop_
  _atom_site_type_symbol
  _atom_site_label
  _atom_site_symmetry_multiplicity
  _atom_site_fract_x
  _atom_site_fract_y
  _atom_site_fract_z
  _atom_site_occupancy
  N   N1        1.0  0.7992519640978097  0.5723158334652277  0.4083633913915945  1.0000
  C   C1        1.0  0.7486495002430031  0.5499283398396686  0.32512604043729065  1.0000
  C   C2        1.0  0.6857643601225359  0.5221114447024227  0.2217249446573626  1.0000
  C   C3        1.0  0.6998088920332679  0.5099553005987733  0.07640197697388618  1.0000
  C   C4        1.0  0.6232197533770484  0.482339249628434  0.01826278108911539  1.0000
  C   C5        1.0  0.5657168009348339  0.4791849103119979  0.1312510296678  1.0000
  C   C6        1.0  0.4749463916977824  0.4528382506007505  0.11980036465919963  1.0000
  C   C7        1.0  0.4189689176977706  0.4993557649726519  0.22427710583110771  1.0000
  C   C8        1.0  0.3333088663785047  0.4743693371206299  0.2133101233034116  1.0000
  C   C9        1.0  0.2765536730770302  0.5228011566946555  0.3204274999203429  1.0000
  N   N2        1.0  0.2309391776088534  0.5617335243185517  0.4065330975387804  1.0000
  C   C10       1.0  0.3028994644516027  0.4027409470471668  0.09788134109269064  1.0000
  C   C11       1.0  0.3578683572702905  0.3563541929703438  0.993640154879618  1.0000
  C   C12       1.0  0.4433228842639914  0.38116044089349577  0.004165955380630139  1.0000
  N   N3        1.0  0.6046246720006869  0.5036189058500751  0.25528890217881006  1.0000
  H   H1        1.0  0.7588008119859831  0.5200354971207537  0.01906099094643521  1.0000
  H   H2        1.0  0.6112607660437285  0.46801769396844206  0.9057845938915099  1.0000
  H   H3        1.0  0.4413243978491876  0.5568276221961219  0.3130999004745172  1.0000
  H   H4        1.0  0.2367909486943543  0.38287636809165854  0.08846240286323635  1.0000
  H   H5        1.0  0.3342343197702037  0.3007071378054309  0.904561797401886  1.0000
  H   H6        1.0  0.4844916134086284  0.3425140965777416  0.9226680846859544  1.0000
  H   H7        1.0  0.5781164528536482  0.5053592689753869  0.35838366188854054  1.0000
  C   C13       1.0  0.012572661980093436  0.14365454694048976  0.40644956959402556  1.0000
  C   C14       1.0  0.024920811151460276  0.2279341945487692  0.2747391923845157  1.0000
  C   C15       1.0  0.04451528329796364  0.16323491348703834  0.14817102172862717  1.0000
  C   C16       1.0  0.05222829439161081  0.013092154911236166  0.15088213234724268  1.0000
  C   C17       1.0  0.03882148570949618  0.9272781103038149  0.2802315572195453  1.0000
  C   C18       1.0  0.01762630224268791  0.990383457218761  0.40845935584824744  1.0000
  C   C19       1.0  0.07297310937620383  0.9466487245773041  0.020274808755830882  1.0000
  C   C20       1.0  0.09034238583651201  0.8910036090896527  0.9109284632927368  1.0000
  H   H8        1.0  0.024974553944102203  0.21678384627469138  0.7610350339219336  1.0000
  H   H9        1.0  0.02135427405340828  0.34488479161528707  0.27033353677558075  1.0000
  H   H10       1.0  0.05446554778066259  0.23059622687768155  0.0483515720543901  1.0000
  H   H11       1.0  0.04302112147927195  0.8105694743889542  0.2800354577215278  1.0000
  H   H12       1.0  0.022778805123977675  0.6896611029698033  0.6473782797646503  1.0000
  H   H13       1.0  0.10558888442386927  0.8421571909478234  0.8149453353596825  1.0000
  C   C21       1.0  0.016560122255795614  0.5706735533392886  0.9836057156695727  1.0000
  C   C22       1.0  0.08153533571653143  0.5000355430832386  0.061649149332948294  1.0000
  C   C23       1.0  0.14093545989519374  0.4192688034082786  0.9925549055361915  1.0000
  C   C24       1.0  0.13695324047561352  0.40636269549189485  0.8432442057437298  1.0000
  C   C25       1.0  0.07324619259291731  0.4794046731448847  0.7636425916532521  1.0000
  C   C26       1.0  0.013638862062410826  0.563364453177895  0.8313031301471572  1.0000
  C   C27       1.0  0.20036470028991293  0.3185705066159803  0.7720729546337703  1.0000
  N   N4        1.0  0.2698175770532971  0.2664866754606394  0.8396964597179704  1.0000
  C   C28       1.0  0.30971064054549546  0.19336074200816133  0.7400312715812678  1.0000
  C   C29       1.0  0.2642538362973108  0.20166123052594045  0.6146991626409516  1.0000
  N   N5        1.0  0.19548267359223637  0.2803414274557215  0.6350084789294455  1.0000
  H   H14       1.0  0.9289783192109561  0.7548215412470406  0.25099076438836065  1.0000
  H   H15       1.0  0.08533422076539887  0.5042333477908532  0.17779448617107274  1.0000
  H   H16       1.0  0.18946729883510915  0.3649600097682247  0.05694945470915579  1.0000
  H   H17       1.0  0.07116246266200177  0.47555424168310895  0.6475370725933516  1.0000
  H   H18       1.0  0.8841594202174798  0.6479203628618195  0.5462851621892986  1.0000
  H   H19       1.0  0.36830764984384934  0.13704432005017653  0.7580196397391709  1.0000
  H   H20       1.0  0.27995512467191697  0.1531287614265651  0.5158244322347914  1.0000
  H   H21       1.0  0.1484895048028818  0.3033492585487423  0.5595547438424151  1.0000
  Zn  Zn1       1.0  0.9238275150445362  0.5692580908602892  0.40784352644421595  1.0000
  Zn  Zn2       1.0  0.10636349244677756  0.5647794195641371  0.407064731152297  1.0000
  C   C30       1.0  0.01415490413842968  0.5590026036184694  0.6710565776431487  1.0000
  C   C31       1.0  0.016038107009009653  0.5750366757622491  0.1438518174312733  1.0000
  C   C32       1.0  0.01668660664245114  0.8303833653715228  0.4023278298189572  1.0000
  C   C33       1.0  0.013506331614826284  0.30365418273148415  0.41258063836085723  1.0000
  O   O1        1.0  0.0851343285135171  0.5747950573656948  0.19733630936521385  1.0000
  O   O2        1.0  0.08359926082760971  0.5558439300913971  0.6169805800333257  1.0000
  O   O3        1.0  0.08564270363313486  0.7749873372566818  0.3999802224071318  1.0000
  O   O4        1.0  0.08309082385532451  0.35565166297516804  0.4143365590606269  1.0000
  O   O5        1.0  0.9471001213454544  0.7783858489792438  0.40057169879406285  1.0000
  O   O6        1.0  0.9450566891395561  0.5592441746216563  0.6175719835730407  1.0000
  O   O7        1.0  0.9465917625611189  0.5781952666169483  0.1979259774638964  1.0000
  O   O8        1.0  0.9445482574650589  0.3590518609816493  0.41492633534826684  1.0000
