data_image0
_chemical_formula_structural       NC10NC3NH7C12ClH9C12ClH9Zn2C4O8
_chemical_formula_sum              "N3 C41 H25 Cl2 Zn2 O8"
_cell_length_a       19.210446455230148
_cell_length_b       10.299768534541528
_cell_length_c       10.299771906710086
_cell_angle_alpha    85.54593327708469
_cell_angle_beta     89.99986541556282
_cell_angle_gamma    89.96529235611058

_space_group_name_H-M_alt    "P 1"
_space_group_IT_number       1

loop_
  _space_group_symop_operation_xyz
  'x, y, z'

loop_
  _atom_site_type_symbol
  _atom_site_label
  _atom_site_symmetry_multiplicity
  _atom_site_fract_x
  _atom_site_fract_y
  _atom_site_fract_z
  _atom_site_occupancy
  N   N1        1.0  0.6555850019849012  0.4205839902077462  0.5674199464656411  1.0000
  C   C1        1.0  0.5953566735617455  0.42279137867425765  0.567651243330614  1.0000
  C   C2        1.0  0.5205525078711372  0.4255281362230771  0.5679377914263328  1.0000
  C   C3        1.0  0.4849535043521304  0.5417510606455407  0.5830573911140033  1.0000
  C   C4        1.0  0.4122880323521644  0.541902609917394  0.5830048042061875  1.0000
  C   C5        1.0  0.3753858249390478  0.4262370585431339  0.5680243222721584  1.0000
  C   C6        1.0  0.2980635618437604  0.4248806633977535  0.5678736389769421  1.0000
  C   C7        1.0  0.2603115420361009  0.5284678391197051  0.5045191247261811  1.0000
  C   C8        1.0  0.1875330533166633  0.5270656773784623  0.5044099559173252  1.0000
  C   C9        1.0  0.15150519022812584  0.4223338585846889  0.5676043221872875  1.0000
  C   C10       1.0  0.0765755425855245  0.42103185189028086  0.5674674058102238  1.0000
  N   N2        1.0  0.0163375876868246  0.419984994289734  0.5673573599158235  1.0000
  C   C11       1.0  0.188533560752114  0.3188723797572459  0.6309338365869979  1.0000
  C   C12       1.0  0.2613138800324595  0.32000026523440517  0.6310932324739464  1.0000
  C   C13       1.0  0.4135948792540185  0.31183425549351274  0.5531930092644743  1.0000
  N   N3        1.0  0.48436505583477146  0.3142791168851319  0.5533587369041884  1.0000
  H   H1        1.0  0.5130634965996149  0.6311786886369823  0.5951118230661956  1.0000
  H   H2        1.0  0.3850284092862207  0.6319116617211376  0.596453993110228  1.0000
  H   H3        1.0  0.2870401041063415  0.6097346860860959  0.4535342089447687  1.0000
  H   H4        1.0  0.1593879990768704  0.6075044339299509  0.45475537198973437  1.0000
  H   H5        1.0  0.1611651895893246  0.23747028159433836  0.6804888710695589  1.0000
  H   H6        1.0  0.28881423103324355  0.2396802518155072  0.6821855447172407  1.0000
  H   H7        1.0  0.3873202292823041  0.22096231926411702  0.5396975151217716  1.0000
  C   C14       1.0  0.8358989665702691  0.03891921883444339  0.5673865435697254  1.0000
  C   C15       1.0  0.8404717852095682  0.04851656743492815  0.43091702004725785  1.0000
  C   C16       1.0  0.8428557897062795  0.9362401398495196  0.36177420437753605  1.0000
  C   C17       1.0  0.8406047347836252  0.8132286247905653  0.43093248691453767  1.0000
  C   C18       1.0  0.8360302785847203  0.8016397498892668  0.5674019486714987  1.0000
  C   C19       1.0  0.833703524317594  0.9150423375140085  0.6348647469987967  1.0000
  C   C20       1.0  0.8476943761550579  0.9474470008666068  0.217400824985698  1.0000
  C   C21       1.0  0.8080870356653196  0.04107425264757891  0.14294400046513256  1.0000
  C   C22       1.0  0.8127032732508801  0.05142656942769186  0.007063646860986593  1.0000
  C   C23       1.0  0.8568594833772314  0.9686743675686096  0.9439482740737151  1.0000
  C   C24       1.0  0.8964552858669711  0.8753598139375055  0.01689388224999488  1.0000
  C   C25       1.0  0.891962665628522  0.8646150364616189  0.15278885764936967  1.0000
  Cl  Cl1       1.0  0.8625736782970971  0.9819090609671655  0.7734625300760225  1.0000
  H   H8        1.0  0.8341207808776828  0.3627159671137554  0.6193849030025358  1.0000
  H   H9        1.0  0.8431509576422695  0.14353965130489876  0.37818404146954765  1.0000
  H   H10       1.0  0.8414672948413309  0.7264086307319798  0.3779862685389721  1.0000
  H   H11       1.0  0.8301751002623551  0.9068702373158508  0.7401447024409833  1.0000
  H   H12       1.0  0.8343149127779969  0.46977005277862344  0.619408098176039  1.0000
  H   H13       1.0  0.7728956515299483  0.10509516025424048  0.1896935054859441  1.0000
  H   H14       1.0  0.7817922289452925  0.12360794550739615  0.9509573310849899  1.0000
  H   H15       1.0  0.930870216837798  0.8112940662242313  0.9684550364005321  1.0000
  H   H16       1.0  0.9237568913543008  0.7927259327832888  0.20740071718961572  1.0000
  C   C26       1.0  0.8359315059899303  0.420385877293884  0.18602500899555152  1.0000
  C   C27       1.0  0.8990813954630065  0.489163466658737  0.1796877596183668  1.0000
  C   C28       1.0  0.9311138842308545  0.5239054151267966  0.0593462788505843  1.0000
  C   C29       1.0  0.8991485067221819  0.48894819463378125  0.9444179673363582  1.0000
  C   C30       1.0  0.8359977226944136  0.4201731666253192  0.948763560960014  1.0000
  C   C31       1.0  0.8047431841401724  0.3862763171970547  0.07003505161542578  1.0000
  C   C32       1.0  0.9979216636434561  0.5966649730749649  0.05369574478981676  1.0000
  C   C33       1.0  0.008940976997138032  0.6996510478399136  0.133498024886475  1.0000
  C   C34       1.0  0.07185337235317003  0.7680334157326167  0.1279922325998324  1.0000
  C   C35       1.0  0.1244603752302962  0.7344755079312779  0.04299436030239812  1.0000
  C   C36       1.0  0.11410574870022838  0.6323477900710937  0.9633207775038491  1.0000
  C   C37       1.0  0.05125571196415436  0.5637649982853614  0.9684509236769858  1.0000
  Cl  Cl2       1.0  0.20335177005109006  0.8203941287206846  0.036322814836778454  1.0000
  H   H17       1.0  0.8118498808173504  0.3942355072590386  0.5158887609834009  1.0000
  H   H18       1.0  0.9239907469100899  0.5143214364642503  0.2686647546041172  1.0000
  H   H19       1.0  0.9231414312368842  0.5170492426302171  0.851304809732071  1.0000
  H   H20       1.0  0.7560255284351923  0.33321869354236067  0.07415574540095782  1.0000
  H   H21       1.0  0.8119476271274276  0.3939207756379092  0.6229695528731121  1.0000
  H   H22       1.0  0.9685918782435756  0.7283709611372096  0.19887954353448967  1.0000
  H   H23       1.0  0.0795639145792375  0.8472939868103624  0.18962612098991682  1.0000
  H   H24       1.0  0.154772881983962  0.6057744799482685  0.8975956721501004  1.0000
  H   H25       1.0  0.04470045224257957  0.4839622351188539  0.9070363589429001  1.0000
  Zn  Zn1       1.0  0.7596904047489129  0.4204076668127483  0.5674093843431383  1.0000
  Zn  Zn2       1.0  0.9122321680844871  0.4201507322715803  0.567378557610805  1.0000
  C   C38       1.0  0.8359827692696002  0.4150397212277326  0.8045895116208335  1.0000
  C   C39       1.0  0.8359414696082711  0.4255203136192862  0.3301985574962423  1.0000
  C   C40       1.0  0.8360014196889866  0.6574708187651866  0.5622238980345307  1.0000
  C   C41       1.0  0.8359227668744458  0.18308765586249032  0.5725642403001496  1.0000
  O   O1        1.0  0.8938336167220078  0.42714030634700006  0.37857281871566695  1.0000
  O   O2        1.0  0.8938662907503021  0.41322374151944463  0.7561914797586311  1.0000
  O   O3        1.0  0.8938805709483026  0.6089899196783952  0.560479532195824  1.0000
  O   O4        1.0  0.893819284464981  0.23137413759301692  0.574284668914425  1.0000
  O   O5        1.0  0.7781032363134014  0.6091842615804064  0.5605032730432067  1.0000
  O   O6        1.0  0.778088956374822  0.41341964372989237  0.7562151513920976  1.0000
  O   O7        1.0  0.7780562822494623  0.42733616373734007  0.37859492894610813  1.0000
  O   O8        1.0  0.7780419499964444  0.2315699856674842  0.574306876512604  1.0000
