data_image0
_chemical_formula_structural       NC6NC3H6C7NH3C6BrH3Zn2C4O8
_chemical_formula_sum              "N3 C26 H12 Br1 Zn2 O8"
_cell_length_a       14.934028789175542
_cell_length_b       9.275154477615127
_cell_length_c       9.2754281938718
_cell_angle_alpha    86.39200360318996
_cell_angle_beta     89.91643143648338
_cell_angle_gamma    89.3962875590186

_space_group_name_H-M_alt    "P 1"
_space_group_IT_number       1

loop_
  _space_group_symop_operation_xyz
  'x, y, z'

loop_
  _atom_site_type_symbol
  _atom_site_label
  _atom_site_symmetry_multiplicity
  _atom_site_fract_x
  _atom_site_fract_y
  _atom_site_fract_z
  _atom_site_occupancy
  N   N1        1.0  0.8346231586820552  0.5602589336744341  0.41620447422778395  1.0000
  C   C1        1.0  0.7571443075952861  0.5591538014695494  0.41552149378305225  1.0000
  C   C2        1.0  0.6607567444879023  0.5577739378304885  0.41466891850344845  1.0000
  C   C3        1.0  0.6122953578256985  0.6652375060588418  0.480961079245989  1.0000
  C   C4        1.0  0.5187908374428697  0.6641295823642771  0.480277494049981  1.0000
  C   C5        1.0  0.4728347979062925  0.555612934197421  0.41333577930330234  1.0000
  C   C6        1.0  0.37617388863220985  0.5579412821777952  0.4147733755195595  1.0000
  N   N2        1.0  0.2986817521978942  0.5597891233287549  0.4159146176070896  1.0000
  C   C7        1.0  0.5213002823087227  0.44666262512883237  0.3461259262794778  1.0000
  C   C8        1.0  0.4737512469385941  0.32868248462315575  0.2733475978403028  1.0000
  C   C9        1.0  0.6154285191614459  0.4489010774674171  0.3475068355166202  1.0000
  H   H1        1.0  0.6467890249219601  0.7499088357752659  0.5331937418769743  1.0000
  H   H2        1.0  0.4822087999285462  0.7481488185496126  0.5321077497914051  1.0000
  H   H3        1.0  0.430762765294892  0.376804074450948  0.18496313195172087  1.0000
  H   H4        1.0  0.43133594093829325  0.2666979896104218  0.3531869332677431  1.0000
  H   H5        1.0  0.5217070236863586  0.2522649708721332  0.2262007237891628  1.0000
  H   H6        1.0  0.6534963480787886  0.3659995506024383  0.29636636190478094  1.0000
  C   C10       1.0  0.06924911916098675  0.13661441665286334  0.4143903783725067  1.0000
  C   C11       1.0  0.044759905972418856  0.21847140775670937  0.28735024887585303  1.0000
  C   C12       1.0  0.012982535316727214  0.15118961454165536  0.16704498725418904  1.0000
  C   C13       1.0  0.0051707518460641895  0.001133322991187844  0.17236309311788012  1.0000
  C   C14       1.0  0.030491921630230623  0.9180371133341166  0.29650657567104743  1.0000
  C   C15       1.0  0.06406445949383843  0.9834226703407157  0.41774115204060736  1.0000
  C   C16       1.0  0.9873031003596571  0.23661338947178454  0.038474252013224415  1.0000
  N   N3        1.0  0.9666639596056319  0.3052785404220819  0.9351363136353387  1.0000
  H   H7        1.0  0.08636230989823375  0.2170178619621861  0.7681000457898803  1.0000
  H   H8        1.0  0.9802707204209925  0.9480516237240176  0.07990124182522274  1.0000
  H   H9        1.0  0.07938791247157972  0.6871493258636352  0.6547342810321568  1.0000
  C   C17       1.0  0.06695472019755111  0.5555322891030305  0.9928941322898499  1.0000
  C   C18       1.0  0.14942404957500877  0.5581330703256948  0.06589855076359719  1.0000
  C   C19       1.0  0.22967322635624854  0.5738939574792028  0.9893743097405294  1.0000
  C   C20       1.0  0.22871666422863024  0.5874729335920768  0.8388713393302525  1.0000
  C   C21       1.0  0.14782491551518873  0.5827904376079671  0.7643505658167702  1.0000
  C   C22       1.0  0.06635887749175134  0.5645047863934334  0.8392373603112304  1.0000
  Br  Br1       1.0  0.34066328663362966  0.5792937363585278  0.09089069803639882  1.0000
  H   H10       1.0  0.8510985557193577  0.627195791110283  0.09187675428731024  1.0000
  H   H11       1.0  0.29080859543758897  0.6002949332638561  0.7793036183283975  1.0000
  H   H12       1.0  0.9207671776186706  0.6066553204705716  0.5557582458690233  1.0000
  Zn  Zn1       1.0  0.9685404758684255  0.560119580986628  0.41612912785054634  1.0000
  Zn  Zn2       1.0  0.16476452909516437  0.5599167900779818  0.41600169879614657  1.0000
  C   C23       1.0  0.0665046544926593  0.5570647776214955  0.6792376354442247  1.0000
  C   C24       1.0  0.06680248199334748  0.5629734119832284  0.15289333844787767  1.0000
  C   C25       1.0  0.06504390058563958  0.8232969916889252  0.4113653180073156  1.0000
  C   C26       1.0  0.06826317949492376  0.29673946649474714  0.4207657259017552  1.0000
  O   O1        1.0  0.14121743354364288  0.5653874723919086  0.20654215009317234  1.0000
  O   O2        1.0  0.1410192259776789  0.5544957114840708  0.6254916889670106  1.0000
  O   O3        1.0  0.1398386438316872  0.7694816082320743  0.40918290397975565  1.0000
  O   O4        1.0  0.14239794874457742  0.3504015848819777  0.42285082711660116  1.0000
  O   O5        1.0  0.9909069892573686  0.7696347862533244  0.40927999956600325  1.0000
  O   O6        1.0  0.9920875608471601  0.5546506209970643  0.6255887145722023  1.0000
  O   O7        1.0  0.9922857700001054  0.5655423132924458  0.20663744295021869  1.0000
  O   O8        1.0  0.9934662851844545  0.3505564166151338  0.42294622797338577  1.0000
