data_image0
_chemical_formula_structural       NC9NC5H8C6OCH8C9H7Zn2C4O8
_chemical_formula_sum              "N2 C34 H23 O9 Zn2"
_cell_length_a       17.807436237873137
_cell_length_b       9.273888216677435
_cell_length_c       9.275155815604963
_cell_angle_alpha    86.25620799071866
_cell_angle_beta     89.76311116066847
_cell_angle_gamma    87.81887448081709

_space_group_name_H-M_alt    "P 1"
_space_group_IT_number       1

loop_
  _space_group_symop_operation_xyz
  'x, y, z'

loop_
  _atom_site_type_symbol
  _atom_site_label
  _atom_site_symmetry_multiplicity
  _atom_site_fract_x
  _atom_site_fract_y
  _atom_site_fract_z
  _atom_site_occupancy
  N   N1        1.0  0.6942631734353549  0.5278844538844545  0.4042956888136293  1.0000
  C   C1        1.0  0.6338395520021601  0.48869565200419246  0.39192214255922564  1.0000
  C   C2        1.0  0.5586792079606426  0.43994909800209964  0.3765307947403824  1.0000
  C   C3        1.0  0.5406262776011664  0.3596445313093053  0.2597206970306509  1.0000
  C   C4        1.0  0.4676498054967236  0.31219076848783733  0.24468455305102133  1.0000
  C   C5        1.0  0.4116796092268191  0.344621942505012  0.3464209937839384  1.0000
  C   C6        1.0  0.3341240602692512  0.29431922184819137  0.3305330045942989  1.0000
  C   C7        1.0  0.27156806429164637  0.38536948941687466  0.3596434001587743  1.0000
  C   C8        1.0  0.1984505081813579  0.3376903382274714  0.34462163204850005  1.0000
  C   C9        1.0  0.1348301805974003  0.43173332495459177  0.3741465598749174  1.0000
  N   N2        1.0  0.08369245665518871  0.5073373902499401  0.39788377241937156  1.0000
  C   C10       1.0  0.187306802287434  0.19867414117384888  0.3004603116477875  1.0000
  C   C11       1.0  0.24900547854654032  0.10760840916642356  0.2713405506234208  1.0000
  C   C12       1.0  0.3220051593572536  0.15484744327324917  0.28613598526951334  1.0000
  C   C13       1.0  0.4304218704950835  0.42547765957802053  0.463476344600811  1.0000
  C   C14       1.0  0.5034517589968912  0.47271849206982874  0.47833899949820663  1.0000
  H   H1        1.0  0.5828957174811394  0.33399852074104874  0.18004849956489744  1.0000
  H   H2        1.0  0.4547519769718377  0.2517889447636015  0.1524507208291883  1.0000
  H   H3        1.0  0.27960565692029504  0.49389507993359105  0.3920767630113988  1.0000
  H   H4        1.0  0.1310005533301367  0.1607707645786569  0.28856747330549015  1.0000
  H   H5        1.0  0.24026053342246434  0.9999824717916866  0.23757829569055988  1.0000
  H   H6        1.0  0.3689577334067809  0.08164543390643873  0.2647359231400639  1.0000
  H   H7        1.0  0.3888770311824742  0.45053706315508796  0.5445829634100245  1.0000
  H   H8        1.0  0.5168671824496033  0.5344662795971359  0.5694217410303413  1.0000
  C   C15       1.0  0.8911830203867521  0.09401979094475088  0.3995809229996923  1.0000
  C   C16       1.0  0.8732229270325191  0.1771214894317168  0.271142768986949  1.0000
  C   C17       1.0  0.8488883474664152  0.1126207949482163  0.14846402800105363  1.0000
  C   C18       1.0  0.8423734089908833  0.9620283625835606  0.1537629069010853  1.0000
  C   C19       1.0  0.861110932406367  0.8776666648861836  0.27941588019109465  1.0000
  C   C20       1.0  0.8867798674238396  0.9411907144596895  0.4026108959518089  1.0000
  O   O1        1.0  0.8313972733561339  0.20190134100802656  0.024255429151967215  1.0000
  C   C21       1.0  0.8058925868536954  0.15118010987119065  0.8920397335443645  1.0000
  H   H9        1.0  0.8984409316926127  0.1733760136688265  0.7541392352358043  1.0000
  H   H10       1.0  0.876382877962796  0.2937935420489426  0.26681872681500596  1.0000
  H   H11       1.0  0.8235271709169931  0.9087829900404065  0.060859314719732716  1.0000
  H   H12       1.0  0.8572047030335856  0.7614002132913468  0.2790002764108386  1.0000
  H   H13       1.0  0.8948137128714898  0.6438849633156125  0.6403691606766899  1.0000
  H   H14       1.0  0.7520236411264728  0.09604137492742579  0.9095371842833523  1.0000
  H   H15       1.0  0.8488945203614794  0.07593074619102325  0.8481148305621917  1.0000
  H   H16       1.0  0.7964981158679113  0.24467493654848016  0.8125110535488744  1.0000
  C   C22       1.0  0.8876235960001745  0.5140318148191358  0.977874300714138  1.0000
  C   C23       1.0  0.8284740194342718  0.5874194191951543  0.04690842428424279  1.0000
  C   C24       1.0  0.7743077661204152  0.670128120608098  0.9667943252126966  1.0000
  C   C25       1.0  0.7782855817685156  0.6811743582037172  0.816186339668687  1.0000
  C   C26       1.0  0.8359270354471937  0.6070915286705882  0.7454659766728975  1.0000
  C   C27       1.0  0.8903392931852465  0.5211786477252548  0.8243174696251669  1.0000
  C   C28       1.0  0.7225828676249112  0.7673332053940942  0.7337966843536678  1.0000
  C   C29       1.0  0.6759418603882251  0.8394793466851092  0.6647799100845879  1.0000
  C   C30       1.0  0.6193513811182099  0.927016464402797  0.5810282391588859  1.0000
  H   H17       1.0  0.06264424163114324  0.38844905359209114  0.08754418983812551  1.0000
  H   H18       1.0  0.8251188285981303  0.583599004778331  0.16374124600596085  1.0000
  H   H19       1.0  0.72968239004271  0.7266842721710267  0.022531371738840008  1.0000
  H   H20       1.0  0.8372801812389356  0.6138011917539962  0.628321080649529  1.0000
  H   H21       1.0  0.6345996373961116  0.9303552684937187  0.46479266038222145  1.0000
  H   H22       1.0  0.5636527810581902  0.8786033479120988  0.596792267079369  1.0000
  H   H23       1.0  0.6168707531155655  0.03849847783482119  0.6179626417537563  1.0000
  Zn  Zn1       1.0  0.8066440979908397  0.5219512366022592  0.40245366953292283  1.0000
  Zn  Zn2       1.0  0.9713116130290899  0.5132589493824399  0.3997375979448734  1.0000
  C   C31       1.0  0.8898541701244478  0.5140814001560818  0.6643010963165754  1.0000
  C   C32       1.0  0.8881033300539131  0.5211305121378061  0.1378902894663303  1.0000
  C   C33       1.0  0.8875898765878493  0.7810090894647692  0.39629511408012874  1.0000
  C   C34       1.0  0.8903675766549607  0.2542010933972567  0.4058963432683229  1.0000
  O   O2        1.0  0.9507548296774673  0.5202079290990456  0.19056235953554324  1.0000
  O   O3        1.0  0.9521815085927374  0.508405646628409  0.6095671719925226  1.0000
  O   O4        1.0  0.9503522253326946  0.7239531886274062  0.3931504644091499  1.0000
  O   O5        1.0  0.9525840563473098  0.30466039947249435  0.4069789600217457  1.0000
  O   O6        1.0  0.8253715984796465  0.7305497894799624  0.39521230837533716  1.0000
  O   O7        1.0  0.8272008724822661  0.5150039798805838  0.6116289453124517  1.0000
  O   O8        1.0  0.825774188318895  0.5268061974518704  0.19262239992088204  1.0000
  O   O9        1.0  0.8276034153859639  0.31125865842063094  0.4090391084235421  1.0000
