data_image0
_chemical_formula_structural       NC9NC5H8C7NC2NH8C6NO2H3Zn2C4O8
_chemical_formula_sum              "N5 C33 H19 O10 Zn2"
_cell_length_a       17.807436237873137
_cell_length_b       9.273995741505848
_cell_length_c       9.273395971720356
_cell_angle_alpha    85.10796789348095
_cell_angle_beta     89.26497821809997
_cell_angle_gamma    88.97465214434487

_space_group_name_H-M_alt    "P 1"
_space_group_IT_number       1

loop_
  _space_group_symop_operation_xyz
  'x, y, z'

loop_
  _atom_site_type_symbol
  _atom_site_label
  _atom_site_symmetry_multiplicity
  _atom_site_fract_x
  _atom_site_fract_y
  _atom_site_fract_z
  _atom_site_occupancy
  N   N1        1.0  0.7172874973709278  0.5572357108099606  0.39981699491168077  1.0000
  C   C1        1.0  0.6565058553165221  0.5182988807339215  0.38746819971780777  1.0000
  C   C2        1.0  0.5809001731303918  0.46986575226452193  0.37210763946072434  1.0000
  C   C3        1.0  0.5625125717495525  0.3918015473933596  0.2551936287465717  1.0000
  C   C4        1.0  0.48910280331491995  0.3446538966805577  0.2401873662345371  1.0000
  C   C5        1.0  0.4330297337245672  0.37515172855487555  0.34205802706728994  1.0000
  C   C6        1.0  0.3550146529092739  0.32517253890351294  0.3262017993391975  1.0000
  C   C7        1.0  0.2932888936613384  0.41563055721298237  0.35525530101123715  1.0000
  C   C8        1.0  0.219735608946559  0.368257354769973  0.3402637013529247  1.0000
  C   C9        1.0  0.1569751728116917  0.4616988485571043  0.3697289483348179  1.0000
  N   N2        1.0  0.10652873691869538  0.5368193322667627  0.39341818364863435  1.0000
  C   C10       1.0  0.20732304995078146  0.2301400423196207  0.2961897282222261  1.0000
  C   C11       1.0  0.2681913677562935  0.13966674350699337  0.26712686327803525  1.0000
  C   C12       1.0  0.34162313751041007  0.18660430571375963  0.281892259717494  1.0000
  C   C13       1.0  0.4521113904557291  0.45376219727513667  0.45921706322965156  1.0000
  C   C14       1.0  0.5255730935565316  0.5007002898257517  0.47404979148105464  1.0000
  H   H1        1.0  0.6048599626998893  0.3676697011172465  0.17541660985830498  1.0000
  H   H2        1.0  0.4759723307977076  0.2860196376570001  0.14786797922888  1.0000
  H   H3        1.0  0.3023259484595602  0.5234929107602644  0.38761702196128556  1.0000
  H   H4        1.0  0.15067019723045397  0.19247896172026782  0.28432095563416127  1.0000
  H   H5        1.0  0.25846221606869996  0.0327286646566487  0.23343295485061402  1.0000
  H   H6        1.0  0.3878994809494847  0.11384067268295082  0.2605413270302511  1.0000
  H   H7        1.0  0.4104761752158272  0.47728067614871894  0.5404316124505011  1.0000
  H   H8        1.0  0.5392403331064655  0.5607015692908295  0.5652145728778477  1.0000
  C   C15       1.0  0.9096665952372787  0.12366713022956666  0.39559990231375375  1.0000
  C   C16       1.0  0.9229939326879909  0.2075667831376229  0.26482986689204013  1.0000
  C   C17       1.0  0.9430360819559777  0.1427070673828177  0.13936406774627041  1.0000
  C   C18       1.0  0.9505851663660048  0.9918458271020051  0.14108014887788345  1.0000
  C   C19       1.0  0.9356819667152655  0.9067637144695061  0.2706802205803145  1.0000
  C   C20       1.0  0.914156741451914  0.9703762946689451  0.397647634659664  1.0000
  C   C21       1.0  0.9727435053577211  0.9250862363361952  0.006567380882679386  1.0000
  N   N3        1.0  0.9756203117176542  0.0005888655751278173  0.8753448988751625  1.0000
  C   C22       1.0  0.9982463121546769  0.9024621301788609  0.78418136912569  1.0000
  C   C23       1.0  0.008880913847208788  0.770190092539912  0.8606424185459607  1.0000
  N   N4        1.0  0.9928745171777974  0.7845718357099338  0.0004829913034443166  1.0000
  H   H9        1.0  0.8485348222206903  0.38930704087888146  0.6043678534229595  1.0000
  H   H10       1.0  0.9197308825322209  0.32463040466916726  0.2602275242907046  1.0000
  H   H11       1.0  0.9537416636446079  0.2113689131169474  0.041122666665575076  1.0000
  H   H12       1.0  0.9382230747072244  0.7900474486860273  0.272638997755831  1.0000
  H   H13       1.0  0.9148817546150039  0.6698021511447773  0.6376992331789  1.0000
  H   H14       1.0  0.006679551039827424  0.9262425761184855  0.6689479687498436  1.0000
  H   H15       1.0  0.027373284837824967  0.6705552586111153  0.8175439430723234  1.0000
  H   H16       1.0  0.9968658617916631  0.7029411048627884  0.08480030557858909  1.0000
  C   C24       1.0  0.9123625656451921  0.5514282414625862  0.9726907544671916  1.0000
  C   C25       1.0  0.8455954000145457  0.5878454534446276  0.04445749425282575  1.0000
  C   C26       1.0  0.7785457124986797  0.6106417886145508  0.9691785988074748  1.0000
  C   C27       1.0  0.7763601580363342  0.5975079689899645  0.8198867024465781  1.0000
  C   C28       1.0  0.8431002876291412  0.5635631573835433  0.7466889188795289  1.0000
  C   C29       1.0  0.9114607498565903  0.542615232432091  0.8205568338080544  1.0000
  N   N5        1.0  0.7068330641774973  0.6199536668151591  0.7429392449036266  1.0000
  O   O1        1.0  0.641726726302295  0.6543603352711402  0.8148617580009528  1.0000
  O   O2        1.0  0.7043781257313249  0.6081980835260057  0.6099542898515629  1.0000
  H   H17       1.0  0.07585322907313596  0.3812983201850031  0.08602038803329126  1.0000
  H   H18       1.0  0.7281256057878123  0.6371986305281654  0.028450339535964764  1.0000
  H   H19       1.0  0.022961931856868567  0.4322152783057416  0.5470126896387235  1.0000
  Zn  Zn1       1.0  0.8296140805578159  0.5513400513605111  0.3979787759621527  1.0000
  Zn  Zn2       1.0  0.9942020605911748  0.5427031165723117  0.39526824239197517  1.0000
  C   C30       1.0  0.9115990946603383  0.5385378356651438  0.6602781084011402  1.0000
  C   C31       1.0  0.912218853280052  0.555507055522231  0.13296902644621267  1.0000
  C   C32       1.0  0.9133102599906787  0.8103902805433196  0.39150789014471976  1.0000
  C   C33       1.0  0.9105076225200437  0.28365288068903216  0.4017393184047383  1.0000
  O   O3        1.0  0.9746308694087067  0.5535919814637753  0.18573123010734777  1.0000
  O   O4        1.0  0.9741055417448008  0.5338965927875876  0.605458254276843  1.0000
  O   O5        1.0  0.9754864857986564  0.7534209086518151  0.38842441893298485  1.0000
  O   O6        1.0  0.9732498693619408  0.33406767998499487  0.40276495815853613  1.0000
  O   O7        1.0  0.8505662156212659  0.7599754908968381  0.3904820611129747  1.0000
  O   O8        1.0  0.8491852808312946  0.540452907936644  0.6075158236721101  1.0000
  O   O9        1.0  0.8497106101247993  0.5601482644123688  0.1877870637136015  1.0000
  O   O10       1.0  0.8483296099051604  0.34062395149715186  0.4048208999748425  1.0000
