data_image0
_chemical_formula_structural       NC8NC6H8C7OC3NC3H11C6NCOC6H11Zn2C4O8
_chemical_formula_sum              "N4 C44 H30 O10 Zn2"
_cell_length_a       17.457602349358154
_cell_length_b       10.298746005989749
_cell_length_c       10.299662537453274
_cell_angle_alpha    85.54306763902352
_cell_angle_beta     92.86302956752768
_cell_angle_gamma    91.69721484149154

_space_group_name_H-M_alt    "P 1"
_space_group_IT_number       1

loop_
  _space_group_symop_operation_xyz
  'x, y, z'

loop_
  _atom_site_type_symbol
  _atom_site_label
  _atom_site_symmetry_multiplicity
  _atom_site_fract_x
  _atom_site_fract_y
  _atom_site_fract_z
  _atom_site_occupancy
  N   N1        1.0  0.7227548336036549  0.45347350053466395  0.6265927532252971  1.0000
  C   C1        1.0  0.6616739570168284  0.40754837340417716  0.615973837667263  1.0000
  C   C2        1.0  0.5856867627374018  0.3504232265260172  0.6027734491377272  1.0000
  C   C3        1.0  0.527151621081662  0.3905602861732196  0.6776744584517684  1.0000
  C   C4        1.0  0.4526026280394941  0.3355533508837907  0.6650886562027758  1.0000
  C   C5        1.0  0.3904761932500644  0.37793208460718936  0.744411657156701  1.0000
  C   C6        1.0  0.31593902738673196  0.3964230652729817  0.6886489368524058  1.0000
  C   C7        1.0  0.25740385026043544  0.43637614312362805  0.7636578883055316  1.0000
  C   C8        1.0  0.1814288941308074  0.4554738630068209  0.7056797297560327  1.0000
  N   N2        1.0  0.12035794527582391  0.47082204949582507  0.6590654409000825  1.0000
  C   C9        1.0  0.27291362923593815  0.45808121092169296  0.8949380982792993  1.0000
  C   C10       1.0  0.34666607479405503  0.43997910404165763  0.9510884461792498  1.0000
  C   C11       1.0  0.4051896009141956  0.4002059234073792  0.876537231972272  1.0000
  C   C12       1.0  0.4378775558316349  0.2397324186427212  0.5761688673718854  1.0000
  C   C13       1.0  0.49640095072652957  0.19987391202561475  0.5016678835018098  1.0000
  C   C14       1.0  0.5701651127458153  0.2549930253108983  0.5148036476692583  1.0000
  H   H1        1.0  0.5394936600896331  0.46573592193872054  0.7443108002501526  1.0000
  H   H2        1.0  0.30360671727445443  0.3814899502236584  0.586622605581369  1.0000
  H   H3        1.0  0.2280474770929316  0.48894444551254534  0.9537765056925889  1.0000
  H   H4        1.0  0.35848487528080913  0.45647015278787073  0.05274161913118936  1.0000
  H   H5        1.0  0.4616673889484276  0.3851954666758727  0.9226430504990346  1.0000
  H   H6        1.0  0.3813900189438736  0.194397023479113  0.5655138744824133  1.0000
  H   H7        1.0  0.484572994775772  0.12581528435327605  0.4338332860797225  1.0000
  H   H8        1.0  0.6150311544247207  0.22325982614584783  0.45647631063479577  1.0000
  C   C15       1.0  0.9215233964809529  0.08074424451132133  0.6428092330602149  1.0000
  C   C16       1.0  0.9574296772595213  0.09086413578170395  0.5232361996129125  1.0000
  C   C17       1.0  0.9747789728092665  0.9788229390621375  0.46201940211449527  1.0000
  C   C18       1.0  0.9574302592873947  0.8556275795764128  0.5231871095377618  1.0000
  C   C19       1.0  0.921596700588191  0.8435416177852668  0.6428607749708208  1.0000
  C   C20       1.0  0.9036859939417431  0.9566679009122001  0.7017429156389285  1.0000
  C   C21       1.0  0.013347692656488382  0.9893461875682227  0.3363524846865069  1.0000
  O   O1        1.0  0.06019428058581022  0.9034219349407913  0.31496598032509726  1.0000
  C   C22       1.0  0.9987735394479597  0.09728637692436348  0.23495545856744604  1.0000
  C   C23       1.0  0.9261292412716046  0.15351344118784913  0.2169149441955616  1.0000
  C   C24       1.0  0.9126987559632151  0.25463525396527187  0.11991026581168862  1.0000
  N   N3        1.0  0.8388262103704887  0.3116505745515721  0.10267282467029194  1.0000
  C   C25       1.0  0.9719602078927247  0.2991401613449809  0.039615170873099625  1.0000
  C   C26       1.0  0.04390446365438194  0.24271849993871952  0.05574242150976682  1.0000
  C   C27       1.0  0.05727531559025813  0.14201867595288675  0.15243801853824324  1.0000
  H   H9        1.0  0.8547420083777647  0.26896389404595133  0.8696930888931774  1.0000
  H   H10       1.0  0.9726928619923392  0.18606463369341686  0.4782604934503379  1.0000
  H   H11       1.0  0.9712734568860854  0.7690583085877765  0.47661933429879966  1.0000
  H   H12       1.0  0.8760125158561193  0.9481153795006277  0.7939142730542559  1.0000
  H   H13       1.0  0.8541778167547308  0.6133996623100794  0.8692040351402144  1.0000
  H   H14       1.0  0.8796598124359853  0.1180572285398067  0.2770829984371388  1.0000
  H   H15       1.0  0.7942413938643478  0.27922702616782136  0.1619833254697447  1.0000
  H   H16       1.0  0.8281928846774969  0.38682929006748856  0.030565281362743724  1.0000
  H   H17       1.0  0.9623019888373392  0.37709886169804635  0.9643384898659139  1.0000
  H   H18       1.0  0.08943420659352874  0.27709899896173185  0.9931652888289286  1.0000
  H   H19       1.0  0.11354194301450327  0.09982930891245556  0.1635609955433799  1.0000
  C   C28       1.0  0.921612879927343  0.46228576508531843  0.26146335203554716  1.0000
  C   C29       1.0  0.999932702862073  0.4980803953744154  0.26404776771866034  1.0000
  C   C30       1.0  0.039612126329148685  0.5142380201271843  0.14868462721077114  1.0000
  C   C31       1.0  0.9997984265365218  0.49776443690203176  0.028893486126919894  1.0000
  C   C32       1.0  0.9215072508914938  0.4620000633357668  0.02420666472940614  1.0000
  C   C33       1.0  0.8829219583546706  0.4440209290300902  0.14110141585908464  1.0000
  N   N4        1.0  0.11950615799025899  0.5528125770360807  0.1547281811315806  1.0000
  C   C34       1.0  0.1738004993087754  0.5153281631100827  0.0649470759611892  1.0000
  O   O2        1.0  0.15979806373580652  0.41615061004680437  0.0022460760960567555  1.0000
  C   C35       1.0  0.2474669289631839  0.588877119388562  0.04861726027267001  1.0000
  C   C36       1.0  0.2567349189286283  0.7173626460929763  0.08573565150799167  1.0000
  C   C37       1.0  0.3263413246210068  0.7859608763139292  0.06923380832169013  1.0000
  C   C38       1.0  0.38723766846874375  0.7275857454373169  0.015228800121440235  1.0000
  C   C39       1.0  0.3785923599337564  0.6005738942465739  0.9771553824611172  1.0000
  C   C40       1.0  0.3091167199581144  0.5315242986965099  0.993338798654294  1.0000
  H   H20       1.0  0.773698799662919  0.3959636553560495  0.4637443321564417  1.0000
  H   H21       1.0  0.03067223713563871  0.5126419415667687  0.3559794647837544  1.0000
  H   H22       1.0  0.02951527808777499  0.5150263447666557  0.9392082473162207  1.0000
  H   H23       1.0  0.8225486259498166  0.4164104559926293  0.13824520741058333  1.0000
  H   H24       1.0  0.8912272187214385  0.4499509117057132  0.694809446484991  1.0000
  H   H25       1.0  0.1404487288944305  0.6009341984056698  0.23536399534331823  1.0000
  H   H26       1.0  0.21012352039002827  0.765868387632103  0.12570571855359636  1.0000
  H   H27       1.0  0.33295061428181016  0.8847371871583442  0.0978953346712923  1.0000
  H   H28       1.0  0.4410372004164038  0.7809156391647397  0.002508197719076847  1.0000
  H   H29       1.0  0.42577117459111724  0.555510511991133  0.935034880381179  1.0000
  H   H30       1.0  0.3038220874840405  0.43302798998312153  0.9634096177238796  1.0000
  Zn  Zn1       1.0  0.8374945015911638  0.45847643118711545  0.6359711677266546  1.0000
  Zn  Zn2       1.0  0.005618260542118228  0.4658084660706749  0.6496976582829623  1.0000
  C   C41       1.0  0.9215249885022487  0.45687985341547294  0.8800313615751203  1.0000
  C   C42       1.0  0.9215896096771048  0.46740676262907516  0.4056377419054788  1.0000
  C   C43       1.0  0.9215796212342231  0.6993584267815908  0.6376755131886167  1.0000
  C   C44       1.0  0.9215349194166721  0.22492662629034507  0.6479936547417495  1.0000
  O   O3        1.0  0.9853838897614993  0.47190221895501216  0.45923311544207723  1.0000
  O   O4        1.0  0.985332751300262  0.45794826224266294  0.8368537028464376  1.0000
  O   O5        1.0  0.9853760076525109  0.6537527387810951  0.6411495704351744  1.0000
  O   O6        1.0  0.985340576054381  0.27609774924219416  0.6549371457946782  1.0000
  O   O7        1.0  0.8577721287065146  0.6481871455149497  0.6307316755239305  1.0000
  O   O8        1.0  0.8577288725103372  0.45238422944848256  0.8264357387944183  1.0000
  O   O9        1.0  0.8577800112345305  0.4663381414877992  0.448813589979241  1.0000
  O   O10       1.0  0.8577366975098949  0.27053366244872  0.6445177176994956  1.0000
