data_image0
_chemical_formula_structural       NC6NC3H6C9H6C6SCH6Zn2C4O8
_chemical_formula_sum              "N2 C29 H18 S1 Zn2 O8"
_cell_length_a       14.934028789175542
_cell_length_b       9.275152443626249
_cell_length_c       10.302812801239593
_cell_angle_alpha    85.3632325581603
_cell_angle_beta     89.97499208564275
_cell_angle_gamma    90.53595971611534

_space_group_name_H-M_alt    "P 1"
_space_group_IT_number       1

loop_
  _space_group_symop_operation_xyz
  'x, y, z'

loop_
  _atom_site_type_symbol
  _atom_site_label
  _atom_site_symmetry_multiplicity
  _atom_site_fract_x
  _atom_site_fract_y
  _atom_site_fract_z
  _atom_site_occupancy
  N   N1        1.0  0.8529987782966747  0.5779350392860383  0.5625654795021764  1.0000
  C   C1        1.0  0.7755058776760606  0.5768365312302539  0.5619575015086327  1.0000
  C   C2        1.0  0.6791007724867071  0.5754649364473037  0.5611985550440686  1.0000
  C   C3        1.0  0.6320054995841041  0.6822856546964723  0.6202094386804146  1.0000
  C   C4        1.0  0.5384868948212058  0.6811843599984604  0.619600934468221  1.0000
  C   C5        1.0  0.491151354451718  0.5733168606179493  0.5600118421142399  1.0000
  C   C6        1.0  0.3945200446720005  0.5756312667359036  0.5612915521845092  1.0000
  N   N2        1.0  0.3170513993993258  0.5774680397814271  0.5623074591908135  1.0000
  C   C7        1.0  0.538231824818989  0.4650183010984437  0.5001840560299681  1.0000
  C   C8        1.0  0.4891829861574729  0.34774390721540227  0.4353994345982499  1.0000
  C   C9        1.0  0.6323885176758657  0.46724336240249004  0.5014132920478973  1.0000
  H   H1        1.0  0.6675755380173507  0.7664504720133949  0.66670507198876  1.0000
  H   H2        1.0  0.5029729389250494  0.7647009861446896  0.6657383581667058  1.0000
  H   H3        1.0  0.4467385931727424  0.39683005057757903  0.3554431238256497  1.0000
  H   H4        1.0  0.446047365284613  0.2848777166901666  0.5077492511013608  1.0000
  H   H5        1.0  0.5361673135701486  0.27178359313404066  0.3934309231598147  1.0000
  H   H6        1.0  0.669402473845232  0.3848377563410321  0.45588989058587764  1.0000
  C   C10       1.0  0.08238792168558406  0.15407188996553  0.5637633929419821  1.0000
  C   C11       1.0  0.05008607340513735  0.23684379779676615  0.45348432077160034  1.0000
  C   C12       1.0  0.02610762560710332  0.1714265831975095  0.34113558475010786  1.0000
  C   C13       1.0  0.03405451951839988  0.02207664630470175  0.3368413944465454  1.0000
  C   C14       1.0  0.06460537273828426  0.9376183538307638  0.44618928742850694  1.0000
  C   C15       1.0  0.08767079740981117  0.0013200919657334511  0.5611207543252301  1.0000
  C   C16       1.0  0.009794790550865736  0.954951551648946  0.2204968947462895  1.0000
  C   C17       1.0  0.9894829364734268  0.8987166386337637  0.1230766167341808  1.0000
  C   C18       1.0  0.9648385164889397  0.8304735182685578  0.004874194705305476  1.0000
  H   H7        1.0  0.21105316185753675  0.2355938510115203  0.8229776795705271  1.0000
  H   H8        1.0  0.002167077912909042  0.23769044094751024  0.25706434903146036  1.0000
  H   H9        1.0  0.17142679036028774  0.7059364016708239  0.7384169848614466  1.0000
  H   H10       1.0  0.9812078863305425  0.7137352151730583  0.016994016830020223  1.0000
  H   H11       1.0  0.8919586198206274  0.8431294292759994  0.9871410780205022  1.0000
  H   H12       1.0  0.002653090734398677  0.882783995028374  0.9208160274455447  1.0000
  C   C19       1.0  0.08502938283535877  0.5776959820514023  0.1811936296554948  1.0000
  C   C20       1.0  0.05572864481495342  0.7215881683817895  0.1695644293707976  1.0000
  C   C21       1.0  0.04091734802670332  0.7929718359385027  0.046803313242893996  1.0000
  C   C22       1.0  0.05572856314605931  0.7215880170289642  0.9344132601987675  1.0000
  C   C23       1.0  0.08502932469436451  0.577695972388089  0.9436905333476518  1.0000
  C   C24       1.0  0.09950884643559171  0.5064404738151302  0.06761858751320027  1.0000
  S   S1        1.0  0.003665888996073891  0.9769220085612611  0.03343970940683616  1.0000
  C   C25       1.0  0.8855689574138631  0.9266382407617606  0.03717454650055507  1.0000
  H   H13       1.0  0.04408917153630809  0.7787425565049486  0.25551192113714527  1.0000
  H   H14       1.0  0.044088990968184055  0.7787423488779901  0.8401616089028954  1.0000
  H   H15       1.0  0.1220935074326206  0.3954405054406578  0.07568232510262374  1.0000
  H   H16       1.0  0.8692907478577967  0.862478259487546  0.9537372212934794  1.0000
  H   H17       1.0  0.8692911404530775  0.8624797170205595  0.1299719085664024  1.0000
  H   H18       1.0  0.8447476153535268  0.026252244529301194  0.029950515200222846  1.0000
  Zn  Zn1       1.0  0.9869143300673113  0.5777964075846662  0.5624985239570479  1.0000
  Zn  Zn2       1.0  0.18313580401065854  0.5775948545062228  0.56238506595475  1.0000
  C   C26       1.0  0.08499150596269239  0.5719489798303055  0.7995802311646336  1.0000
  C   C27       1.0  0.08506078219720486  0.5834441002599047  0.32530347925710945  1.0000
  C   C28       1.0  0.08666760702420356  0.8411721235261049  0.5564467611435095  1.0000
  C   C29       1.0  0.08338460337191761  0.314219223428164  0.568437023939655  1.0000
  O   O1        1.0  0.1595363076120453  0.5852904393171134  0.3736250241525312  1.0000
  O   O2        1.0  0.15944353222919627  0.5699485783614908  0.751172203937173  1.0000
  O   O3        1.0  0.1607960012092839  0.7873496727182725  0.5548402025873644  1.0000
  O   O4        1.0  0.15818377173921416  0.36788935534881184  0.5699569281649555  1.0000
  O   O5        1.0  0.011866295378006866  0.7875019068124278  0.5549266617787265  1.0000
  O   O6        1.0  0.010513837200945453  0.5701025456619377  0.7512585884989976  1.0000
  O   O7        1.0  0.01060661233000259  0.5854443563466096  0.3737098479635972  1.0000
  O   O8        1.0  0.0092540763891662  0.36804326206017834  0.5700418493452903  1.0000
