data_image0
_chemical_formula_structural       NC5NC4H6C6ClH5C6NH7Zn2C4O8
_chemical_formula_sum              "N3 C25 H18 Cl1 Zn2 O8"
_cell_length_a       13.854160002989762
_cell_length_b       9.276545438789551
_cell_length_c       9.274774538082514
_cell_angle_alpha    85.10039089897613
_cell_angle_beta     90.34967120186236
_cell_angle_gamma    89.40960627284836

_space_group_name_H-M_alt    "P 1"
_space_group_IT_number       1

loop_
  _space_group_symop_operation_xyz
  'x, y, z'

loop_
  _atom_site_type_symbol
  _atom_site_label
  _atom_site_symmetry_multiplicity
  _atom_site_fract_x
  _atom_site_fract_y
  _atom_site_fract_z
  _atom_site_occupancy
  N   N1        1.0  0.8914251890745024  0.5919033390814439  0.40898364664576525  1.0000
  C   C1        1.0  0.8186735822235452  0.6176248787790849  0.3498839104911058  1.0000
  C   C2        1.0  0.7281695509703502  0.6496231775566301  0.27636157563852026  1.0000
  C   C3        1.0  0.641099331090047  0.6195206645596255  0.3481502732809154  1.0000
  C   C4        1.0  0.5530271384041107  0.6496231920852058  0.27636155244762217  1.0000
  C   C5        1.0  0.4635654422553116  0.617624730689984  0.34988400213172155  1.0000
  N   N2        1.0  0.3916516189141751  0.5919032755976243  0.40898364652140207  1.0000
  C   C6        1.0  0.5520536972956537  0.7104343387180339  0.1328035098141207  1.0000
  C   C7        1.0  0.6390759284215177  0.7426874591466261  0.06091252648605328  1.0000
  C   C8        1.0  0.638020492197607  0.8038398163736858  0.9058523429345665  1.0000
  C   C9        1.0  0.727130785965765  0.7104343381796927  0.13280341943071683  1.0000
  H   H1        1.0  0.6418788283383202  0.5723427447302978  0.4592614964133032  1.0000
  H   H2        1.0  0.48379952362050926  0.7327015220657693  0.07710248362489258  1.0000
  H   H3        1.0  0.7023060172741513  0.8721944648104338  0.8820785671165448  1.0000
  H   H4        1.0  0.5725975398726673  0.872194466119746  0.8820786322777513  1.0000
  H   H5        1.0  0.6383477833904193  0.7139566321973172  0.8341618263582777  1.0000
  H   H6        1.0  0.7946224815722909  0.7327016352718951  0.0771023981663781  1.0000
  C   C10       1.0  0.1444551545238828  0.16847023050164522  0.4087457543527262  1.0000
  C   C11       1.0  0.14425901505385363  0.2532808796952686  0.27553631829920255  1.0000
  C   C12       1.0  0.13529356839955417  0.18933544035308714  0.14522620863628033  1.0000
  C   C13       1.0  0.12631651745946915  0.03973651484728081  0.14612074595951263  1.0000
  C   C14       1.0  0.12799152593126004  0.9534087269021456  0.2768851212531953  1.0000
  C   C15       1.0  0.138631048060736  0.015325209758484169  0.4092340619507351  1.0000
  Cl  Cl1       1.0  0.133851192772658  0.2973906248505114  0.9804611406133152  1.0000
  H   H7        1.0  0.19477731685742128  0.4294547437945376  0.6356491491221967  1.0000
  H   H8        1.0  0.14876976171325418  0.3700263095437457  0.2726789249697923  1.0000
  H   H9        1.0  0.11895818538402401  0.989892208969114  0.045305064075044976  1.0000
  H   H10       1.0  0.12326144352232249  0.8371713557575744  0.27423126297907907  1.0000
  H   H11       1.0  0.10725799614888726  0.7145588468246535  0.642607254367354  1.0000
  C   C16       1.0  0.13978548147340186  0.5955856580099286  0.9851757133836735  1.0000
  C   C17       1.0  0.20759453195275324  0.6806768489329961  0.05196128862470783  1.0000
  C   C18       1.0  0.2798155784602327  0.7538902400816467  0.97123858911957  1.0000
  C   C19       1.0  0.2848142949644614  0.742344489416352  0.8222545169363582  1.0000
  C   C20       1.0  0.21729307336805623  0.6604297323145027  0.7537682106636598  1.0000
  C   C21       1.0  0.14330068945133068  0.5882097033206506  0.8328040869858548  1.0000
  N   N3        1.0  0.3487340979963487  0.8387808265347969  0.04102929388940058  1.0000
  H   H12       1.0  0.9974459291352804  0.31371310216488646  0.1109334951509502  1.0000
  H   H13       1.0  0.20581004089539637  0.6875155435757605  0.16798536105054995  1.0000
  H   H14       1.0  0.3405799784602544  0.7980549968115648  0.7587558709662918  1.0000
  H   H15       1.0  0.2216248010256561  0.6564188255685097  0.6375928486525244  1.0000
  H   H16       1.0  0.04443540892562558  0.4027482869111312  0.5666153651247456  1.0000
  H   H17       1.0  0.34586899068347676  0.8478231377163767  0.1524044303933627  1.0000
  H   H18       1.0  0.4031144041216638  0.8933574243217856  0.9818186786959391  1.0000
  Zn  Zn1       1.0  0.03577979794443897  0.5918993876860229  0.4089919876944683  1.0000
  Zn  Zn2       1.0  0.24729714152376925  0.5918953243482049  0.4089871515061909  1.0000
  C   C22       1.0  0.14267359771607707  0.5838596245880734  0.6725808642343831  1.0000
  C   C23       1.0  0.1404056395900283  0.5999369055246204  0.1453984176156049  1.0000
  C   C24       1.0  0.13970309029847994  0.8553016048365828  0.4033905971743579  1.0000
  C   C25       1.0  0.14337608706498628  0.3284931922076453  0.4145887606230747  1.0000
  O   O1        1.0  0.22088354313879277  0.6013893912647603  0.1991687818728931  1.0000
  O   O2        1.0  0.2227324695239915  0.582402970700163  0.6188064133408473  1.0000
  O   O3        1.0  0.22033267136621526  0.801595789565384  0.4014333690133087  1.0000
  O   O4        1.0  0.22328326860031958  0.38219658365748166  0.4165417179958386  1.0000
  O   O5        1.0  0.05979359868735789  0.8015981283797686  0.4014374211988805  1.0000
  O   O6        1.0  0.06219338460724243  0.5824070425860361  0.6188103895730339  1.0000
  O   O7        1.0  0.060344451435811124  0.6013934280022786  0.1991710228959731  1.0000
  O   O8        1.0  0.06274417741305682  0.3822006091400802  0.416544067217572  1.0000
