data_image0
_chemical_formula_structural       NC8NC6H8C7H8C9H6Zn2C4O8
_chemical_formula_sum              "N2 C34 H22 Zn2 O8"
_cell_length_a       17.457602349358154
_cell_length_b       9.274341958901593
_cell_length_c       9.275155815604963
_cell_angle_alpha    86.02443870129014
_cell_angle_beta     93.22066324705655
_cell_angle_gamma    91.07026823974832

_space_group_name_H-M_alt    "P 1"
_space_group_IT_number       1

loop_
  _space_group_symop_operation_xyz
  'x, y, z'

loop_
  _atom_site_type_symbol
  _atom_site_label
  _atom_site_symmetry_multiplicity
  _atom_site_fract_x
  _atom_site_fract_y
  _atom_site_fract_z
  _atom_site_occupancy
  N   N1        1.0  0.7081427882180601  0.5997712984727182  0.47353438122645436  1.0000
  C   C1        1.0  0.6473201330025451  0.5486751242106516  0.46180554165368837  1.0000
  C   C2        1.0  0.571654164968377  0.48511792126608677  0.4472254507718474  1.0000
  C   C3        1.0  0.51314053981586  0.5304406691519767  0.5303202327875662  1.0000
  C   C4        1.0  0.4389013331915889  0.46924145018987384  0.516419660746434  1.0000
  C   C5        1.0  0.3767985159294968  0.5170979196310288  0.6044203412838909  1.0000
  C   C6        1.0  0.3019312162074167  0.5370612592846794  0.5424952841142094  1.0000
  C   C7        1.0  0.2434191569234922  0.5821808376359536  0.625710127474232  1.0000
  C   C8        1.0  0.1671017813619693  0.6027953117689642  0.5613249684742014  1.0000
  N   N2        1.0  0.10575556928272711  0.6193622667808789  0.5095594760395894  1.0000
  C   C9        1.0  0.2592825255011635  0.6076119983950183  0.771414235578207  1.0000
  C   C10       1.0  0.3333640398977577  0.5880843418785783  0.8337690918353708  1.0000
  C   C11       1.0  0.39186500428665505  0.5431691425190184  0.7510621438155678  1.0000
  C   C12       1.0  0.42446352865628023  0.3619533625639191  0.417834452385919  1.0000
  C   C13       1.0  0.48296510511826213  0.31694394016853833  0.33518337394321684  1.0000
  C   C14       1.0  0.5564208239899981  0.3782732894264462  0.34969430548990976  1.0000
  H   H1        1.0  0.5252454328673498  0.6145810464454766  0.6041954942666501  1.0000
  H   H2        1.0  0.2893115415885109  0.5194457216916422  0.42925672172301255  1.0000
  H   H3        1.0  0.2144376029439518  0.6424753758198378  0.8366901090980965  1.0000
  H   H4        1.0  0.34545868247379646  0.6074257849575211  0.9465914142798197  1.0000
  H   H5        1.0  0.44861394701778223  0.5269719883287627  0.8022627574429542  1.0000
  H   H6        1.0  0.3682302477054154  0.3115115714611236  0.4060648057525189  1.0000
  H   H7        1.0  0.4713625277769963  0.23403155231183037  0.25997651238327313  1.0000
  H   H8        1.0  0.6012732105671912  0.34244922423777235  0.2849868813321328  1.0000
  C   C15       1.0  0.9093928232207483  0.18611356919871547  0.4920152398527559  1.0000
  C   C16       1.0  0.9180302185063582  0.268747213346955  0.3608345523054679  1.0000
  C   C17       1.0  0.9190392677434546  0.20271797087375745  0.23036175212073218  1.0000
  C   C18       1.0  0.910593130181686  0.05265655184004081  0.22785591617148745  1.0000
  C   C19       1.0  0.9043422090958283  0.9685234281272702  0.35818638370957934  1.0000
  C   C20       1.0  0.9045129531116626  0.033009321010014414  0.4910917933905887  1.0000
  C   C21       1.0  0.9133755581701754  0.9815935091619402  0.08780027167637172  1.0000
  H   H9        1.0  0.8466461031430165  0.26405620784603917  0.8202440985267374  1.0000
  H   H10       1.0  0.9223702849679198  0.3855474480362363  0.3587505094373997  1.0000
  H   H11       1.0  0.9255980071220044  0.2690554360006481  0.13089654718599353  1.0000
  H   H12       1.0  0.9010925076504787  0.8518435216055366  0.35605196784657545  1.0000
  H   H13       1.0  0.8653259229798079  0.7354376483387774  0.7142382521228254  1.0000
  H   H14       1.0  0.9736330663607035  0.9548121249174228  0.06965130107329731  1.0000
  H   H15       1.0  0.890708510835919  0.05451913106817562  0.99580442448207  1.0000
  H   H16       1.0  0.8779979267368839  0.8807280512959977  0.09035983400311154  1.0000
  C   C22       1.0  0.9055681602696951  0.6058472941752246  0.06819887543760972  1.0000
  C   C23       1.0  0.8451437347398109  0.6731532528571835  0.13049914820572162  1.0000
  C   C24       1.0  0.7898030049678827  0.7502959550115847  0.044154934157139  1.0000
  C   C25       1.0  0.7938593048016868  0.7617545554385192  0.8939342541772345  1.0000
  C   C26       1.0  0.8527442670756866  0.6935977679020227  0.8297865762653385  1.0000
  C   C27       1.0  0.9083376184219815  0.6132755683513452  0.9149080801996075  1.0000
  C   C28       1.0  0.7369482985919694  0.8421897531122307  0.805133234459007  1.0000
  C   C29       1.0  0.6892955623793615  0.909543367856914  0.7307480805637465  1.0000
  C   C30       1.0  0.6314775315031794  0.9912656161510115  0.6404828428012581  1.0000
  H   H17       1.0  0.08431948356092733  0.4982791362160823  0.19741833884734872  1.0000
  H   H18       1.0  0.8417198509355849  0.6689861800240176  0.24698274248641972  1.0000
  H   H19       1.0  0.7442152802539994  0.8022640620497723  0.09480675329786403  1.0000
  H   H20       1.0  0.6470443365297893  0.9961769120763032  0.5258919065702417  1.0000
  H   H21       1.0  0.5746317702129435  0.9371008848626112  0.6503878861667634  1.0000
  H   H22       1.0  0.628894264302315  0.1025154451945789  0.6766902312430338  1.0000
  Zn  Zn1       1.0  0.8228852974654336  0.6054210347431461  0.4839387736121352  1.0000
  Zn  Zn2       1.0  0.9910131525153827  0.6137008112413984  0.4991668996307311  1.0000
  C   C31       1.0  0.9078455320025143  0.6061268171470213  0.7548680555416898  1.0000
  C   C32       1.0  0.9060547439083628  0.6129969399370199  0.2282379235073697  1.0000
  C   C33       1.0  0.9054126269564772  0.872877414672027  0.48552104307921223  1.0000
  C   C34       1.0  0.9084876018181683  0.34624460777720323  0.49758500952395845  1.0000
  O   O1        1.0  0.970021726857087  0.6185322674354692  0.28772749133619224  1.0000
  O   O2        1.0  0.9714837057336857  0.6068745569528233  0.7069358691888021  1.0000
  O   O3        1.0  0.9695182489402611  0.8222790087699474  0.48943617141085904  1.0000
  O   O4        1.0  0.9719871258668618  0.40312782216009374  0.5052270758117081  1.0000
  O   O5        1.0  0.8419112667401351  0.8159940210004724  0.47787859222696105  1.0000
  O   O6        1.0  0.843876713295972  0.600591300994182  0.6953782112465967  1.0000
  O   O7        1.0  0.8424147290905536  0.6122489460228133  0.2761681001548135  1.0000
  O   O8        1.0  0.8443801285101589  0.39684449138171174  0.49366779272855993  1.0000
