data_image0
_chemical_formula_structural       NC9NC4H8C7NC2NH8C8NH7Zn2C4O8
_chemical_formula_sum              "N5 C34 H23 Zn2 O8"
_cell_length_a       16.32274767691083
_cell_length_b       9.273995741505848
_cell_length_c       9.274266800404106
_cell_angle_alpha    86.13411906663325
_cell_angle_beta     89.02225532851281
_cell_angle_gamma    90.10890436374608

_space_group_name_H-M_alt    "P 1"
_space_group_IT_number       1

loop_
  _space_group_symop_operation_xyz
  'x, y, z'

loop_
  _atom_site_type_symbol
  _atom_site_label
  _atom_site_symmetry_multiplicity
  _atom_site_fract_x
  _atom_site_fract_y
  _atom_site_fract_z
  _atom_site_occupancy
  N   N1        1.0  0.7875964636336371  0.5558199420201401  0.40180705306875897  1.0000
  C   C1        1.0  0.7352311084517978  0.5026908620325636  0.34141080625223164  1.0000
  C   C2        1.0  0.6701404488260182  0.4367041309605198  0.2663981847862451  1.0000
  C   C3        1.0  0.6816425815830212  0.3464460223278917  0.1637895027573908  1.0000
  C   C4        1.0  0.6022522481634307  0.30239961628406675  0.11371986855146067  1.0000
  C   C5        1.0  0.5433553683938962  0.36686057866466104  0.1870039447420737  1.0000
  C   C6        1.0  0.45340831195402637  0.3498241551616197  0.16763953889033556  1.0000
  C   C7        1.0  0.39785455897448324  0.42495750816217215  0.2530486553377622  1.0000
  C   C8        1.0  0.3131378658994021  0.410397359687964  0.23649860757788657  1.0000
  C   C9        1.0  0.2571734875870022  0.4878404437324358  0.3245325052824002  1.0000
  N   N2        1.0  0.21219706357051638  0.5500919365658294  0.3952968496843954  1.0000
  C   C10       1.0  0.28292181622109963  0.32058234973114397  0.1344020068336933  1.0000
  C   C11       1.0  0.33715370499855074  0.24554851919579004  0.04910639985430888  1.0000
  C   C12       1.0  0.42171138250788665  0.25971648326107344  0.06521049197890672  1.0000
  C   C13       1.0  0.5811621280082638  0.4608517285079062  0.2938536010734005  1.0000
  H   H1        1.0  0.7405304496298922  0.31134888120803494  0.12388731857608382  1.0000
  H   H2        1.0  0.5939156598895627  0.22863177504778598  0.029857715550213104  1.0000
  H   H3        1.0  0.42000626662499  0.4950732655578823  0.3327523823422158  1.0000
  H   H4        1.0  0.2175233358307399  0.3085878056242717  0.12076844961267685  1.0000
  H   H5        1.0  0.3136063053639447  0.17606823695070983  0.9701253290281238  1.0000
  H   H6        1.0  0.46145902403580447  0.19969425203633737  0.9969799346163128  1.0000
  H   H7        1.0  0.5636670499433535  0.4231199294990006  0.4064348105521168  1.0000
  H   H8        1.0  0.5651580961232859  0.5762168004810462  0.2695287622702996  1.0000
  C   C14       1.0  0.9974550492213746  0.1294920134519033  0.39753634278447625  1.0000
  C   C15       1.0  0.012416287329370503  0.21155353612377104  0.26694293388600543  1.0000
  C   C16       1.0  0.03468476988197966  0.14520617363836408  0.14164435505492912  1.0000
  C   C17       1.0  0.0429136614128911  0.9946628016691882  0.14335573157716053  1.0000
  C   C18       1.0  0.026237283678619997  0.9113379085921924  0.27278128078171293  1.0000
  C   C19       1.0  0.0023462108861382848  0.9764086604439406  0.399579857358332  1.0000
  C   C20       1.0  0.06751978798249247  0.9263338131770336  0.009022034314299487  1.0000
  N   N3        1.0  0.07108317332222386  0.9995927599669383  0.8779800334633064  1.0000
  C   C21       1.0  0.09605888977779649  0.9006917531890857  0.7869355144708132  1.0000
  C   C22       1.0  0.10741111943904014  0.7701952585450359  0.8632875965354749  1.0000
  N   N4        1.0  0.08949818931699083  0.7864758993704476  0.002939833706985693  1.0000
  H   H9        1.0  0.9300964266335914  0.3965506907367646  0.606034633860189  1.0000
  H   H10       1.0  0.008871909531654955  0.3284105327655862  0.26234796074934286  1.0000
  H   H11       1.0  0.04668077530994541  0.21251348773220147  0.04353543094818902  1.0000
  H   H12       1.0  0.029002745168639876  0.7947534073155157  0.2747365654004863  1.0000
  H   H13       1.0  0.0023588460168231223  0.6801667081219717  0.6392994427807099  1.0000
  H   H14       1.0  0.10563133450474657  0.9227265476824099  0.6718587788528163  1.0000
  H   H15       1.0  0.1277221026587323  0.6704908544641017  0.8202429756723335  1.0000
  H   H16       1.0  0.09357856181950908  0.7065089441118522  0.08713937484182543  1.0000
  C   C23       1.0  0.0017667726089203265  0.5497720234713794  0.9752108888209734  1.0000
  C   C24       1.0  0.9535599288737769  0.44718422587131257  0.056841275850940676  1.0000
  C   C25       1.0  0.9004601444065141  0.35587833539877983  0.9895282345904467  1.0000
  C   C26       1.0  0.8938068291726916  0.3657701016533097  0.8389569015359997  1.0000
  C   C27       1.0  0.9431185068129654  0.46489519737988627  0.755994699588848  1.0000
  C   C28       1.0  0.9980344622591606  0.5561287004203447  0.8219053032787565  1.0000
  C   C29       1.0  0.8374212080312067  0.2658044755161235  0.7664876926358528  1.0000
  C   C30       1.0  0.8810257456928714  0.1333716257438713  0.7342742577813115  1.0000
  N   N5        1.0  0.915445807105084  0.028851453353342826  0.7088475160940062  1.0000
  H   H17       1.0  0.09385251911829307  0.8659267675854533  0.05402816265940281  1.0000
  H   H18       1.0  0.9556085427165812  0.43968764471479416  0.1738052066134257  1.0000
  H   H19       1.0  0.8638524345020957  0.27819000534307214  0.05513794252342619  1.0000
  H   H20       1.0  0.9399468751127693  0.4682285096090457  0.6391605633248711  1.0000
  H   H21       1.0  0.06299353998505092  0.766144696078581  0.5250968305255186  1.0000
  H   H22       1.0  0.8143569499419709  0.31892107369300216  0.6642043698124995  1.0000
  H   H23       1.0  0.7835157958013191  0.2369004934129728  0.8374016494521452  1.0000
  Zn  Zn1       1.0  0.9101269720532659  0.5541631555720277  0.39993666519435433  1.0000
  Zn  Zn2       1.0  0.08966644092274545  0.5517369784082311  0.39717901926944554  1.0000
  C   C31       1.0  0.9987049618171522  0.5491824370889714  0.6618481248092305  1.0000
  C   C32       1.0  0.0010904216085567643  0.5567194909479812  0.13526767542847185  1.0000
  C   C33       1.0  0.001442782477804048  0.8162803559662283  0.3934488605041178  1.0000
  C   C34       1.0  0.9983525293390455  0.28961984094900894  0.40366701335404037  1.0000
  O   O1        1.0  0.06899768845963926  0.5581241117913167  0.18793766771386866  1.0000
  O   O2        1.0  0.06706399312412525  0.5459353129376612  0.6070847254532019  1.0000
  O   O3        1.0  0.0692738928414276  0.7616202840111448  0.39035043828313754  1.0000
  O   O4        1.0  0.06678772801373456  0.3424391510498641  0.40467184775686005  1.0000
  O   O5        1.0  0.93300562369431  0.763460983759843  0.39244383764041  1.0000
  O   O6        1.0  0.9307957343179  0.5477777446375229  0.6091780521234889  1.0000
  O   O7        1.0  0.9327294370580552  0.5599664802264251  0.19002926099377193  1.0000
  O   O8        1.0  0.9305194760727856  0.3442815099823904  0.4067635490973067  1.0000
