data_image0
_chemical_formula_structural       NC6NC2H4C10H6C6NCH8Zn2C4O8
_chemical_formula_sum              "N3 C29 H18 Zn2 O8"
_cell_length_a       14.927258858638513
_cell_length_b       9.275150299802178
_cell_length_c       9.274690524155615
_cell_angle_alpha    85.73181374548483
_cell_angle_beta     89.68735833801398
_cell_angle_gamma    89.48389287567745

_space_group_name_H-M_alt    "P 1"
_space_group_IT_number       1

loop_
  _space_group_symop_operation_xyz
  'x, y, z'

loop_
  _atom_site_type_symbol
  _atom_site_label
  _atom_site_symmetry_multiplicity
  _atom_site_fract_x
  _atom_site_fract_y
  _atom_site_fract_z
  _atom_site_occupancy
  N   N1        1.0  0.8402287258296397  0.5651130075571091  0.4013129336582441  1.0000
  C   C1        1.0  0.7627022347846583  0.5651129791263066  0.4013129444062311  1.0000
  C   C2        1.0  0.6662697267695187  0.5651130938440416  0.40131289390474245  1.0000
  C   C3        1.0  0.6197851508303543  0.5403055995834005  0.2747901507556745  1.0000
  C   C4        1.0  0.5260738398026376  0.5403056240668649  0.27479001718250484  1.0000
  C   C5        1.0  0.47845366370456244  0.5651129163723396  0.40131291353665566  1.0000
  C   C6        1.0  0.38202108869789014  0.5651130310929882  0.4013128630292275  1.0000
  N   N2        1.0  0.3044945976529087  0.5651130026621858  0.4013128737772145  1.0000
  C   C7        1.0  0.5249381726521942  0.5899204106358946  0.5278356566797848  1.0000
  C   C8        1.0  0.6186494836799106  0.58992038615243  0.5278357902529541  1.0000
  H   H1        1.0  0.6559231274620703  0.5210039692619972  0.1763481949604968  1.0000
  H   H2        1.0  0.4908194708656059  0.5210041668502383  0.17634818890616644  1.0000
  H   H3        1.0  0.4888002626942523  0.6092220315780212  0.626277720594026  1.0000
  H   H4        1.0  0.6539038516932788  0.6092219417041851  0.6262777279812588  1.0000
  C   C9        1.0  0.07472136319718974  0.14142850515525976  0.4037257284990194  1.0000
  C   C10       1.0  0.12220726570643331  0.22252962579872992  0.2946879552990489  1.0000
  C   C11       1.0  0.16202943758253985  0.1553807990859346  0.18010902557142483  1.0000
  C   C12       1.0  0.1547708704472206  0.006152089750986804  0.17309204026982034  1.0000
  C   C13       1.0  0.10924298935864757  0.9236014792662631  0.2814820735247774  1.0000
  C   C14       1.0  0.07001053970960808  0.9887864630475938  0.3989126324493486  1.0000
  C   C15       1.0  0.2095347916110258  0.2402023146355028  0.06857821475527559  1.0000
  C   C16       1.0  0.24930876160031523  0.3112429458310464  0.9752036799660599  1.0000
  C   C17       1.0  0.2958822356534845  0.3944365021988112  0.8658661719922653  1.0000
  C   C18       1.0  0.3356485370669074  0.46547180734804655  0.7725095364450452  1.0000
  H   H5        1.0  0.031455069212918074  0.40574828090158066  0.6325918306724225  1.0000
  H   H6        1.0  0.12650386338302844  0.33899740780229304  0.2969144668615882  1.0000
  H   H7        1.0  0.18510567686356172  0.9532337176078948  0.08443202244912773  1.0000
  H   H8        1.0  0.10652469456367153  0.8075471527137239  0.2752596982293962  1.0000
  H   H9        1.0  0.010622365419937564  0.8613020564497285  0.7413457042244622  1.0000
  H   H10       1.0  0.37056666668228067  0.5278468374450596  0.690534699667864  1.0000
  C   C19       1.0  0.07382091473812569  0.5614135575212418  0.9780928660142084  1.0000
  C   C20       1.0  0.1462568898574359  0.6238251900786362  0.04647572657666821  1.0000
  C   C21       1.0  0.21402526859053858  0.6971637132094317  0.965561351907545  1.0000
  C   C22       1.0  0.2086585001140545  0.7078210567997734  0.8146043563392271  1.0000
  C   C23       1.0  0.1381389686077934  0.6445498453811882  0.745015692973066  1.0000
  C   C24       1.0  0.07091098261675005  0.5688014287495191  0.8245454487165258  1.0000
  N   N3        1.0  0.28821242987064055  0.7626386137671748  0.03391123115977157  1.0000
  C   C25       1.0  0.3003984383343994  0.7575597206055509  0.19022162682590932  1.0000
  H   H11       1.0  0.9725343459409281  0.3874996878083399  0.27207950310273316  1.0000
  H   H12       1.0  0.259945091441058  0.7642993465403431  0.7502249895705377  1.0000
  H   H13       1.0  0.1374184941562604  0.6519939054228343  0.6279006948624384  1.0000
  H   H14       1.0  0.9297185505452685  0.5011149224368745  0.5494917448501906  1.0000
  H   H15       1.0  0.33665300499606987  0.8166078026660772  0.9689705287771803  1.0000
  H   H16       1.0  0.3627745503465692  0.814727424572544  0.21557521784419054  1.0000
  H   H17       1.0  0.3060462393782142  0.643499102010785  0.23509415685468046  1.0000
  H   H18       1.0  0.2429617558710323  0.8116485800396147  0.24111641488922614  1.0000
  Zn  Zn1       1.0  0.9742058285869291  0.5651092127837705  0.4013212660740606  1.0000
  Zn  Zn2       1.0  0.1705175308352642  0.5651050827473856  0.40131643102016573  1.0000
  C   C26       1.0  0.07149100325145197  0.5616572346540183  0.6645804666898751  1.0000
  C   C27       1.0  0.07323448928161193  0.5685588825028847  0.13805736146785885  1.0000
  C   C28       1.0  0.07091614076168029  0.8285676669449011  0.3940792297620418  1.0000
  C   C29       1.0  0.07380929415658471  0.3016467174546884  0.4085586850814026  1.0000
  O   O1        1.0  0.14753698245057037  0.5709490571166294  0.1917411083110323  1.0000
  O   O2        1.0  0.14618455722264956  0.5592628333873895  0.610892641457337  1.0000
  O   O3        1.0  0.14571933905446605  0.7747963961063222  0.39246097030046245  1.0000
  O   O4        1.0  0.14800213394497996  0.3554155037769735  0.41017267134884283  1.0000
  O   O5        1.0  0.9967211584856805  0.7747987917570964  0.39246502573944353  1.0000
  O   O6        1.0  0.997186367277131  0.5592669617983907  0.6108966102046673  1.0000
  O   O7        1.0  0.9985387988009986  0.5709531201264595  0.19174334457069397  1.0000
  O   O8        1.0  0.9990039499776496  0.35541955741043996  0.4101750157216286  1.0000
