data_image0
_chemical_formula_structural       NC4NC3NH3C6H6C6H6Zn2C4O8
_chemical_formula_sum              "N3 C23 H15 Zn2 O8"
_cell_length_a       11.06051283748042
_cell_length_b       10.302277161923591
_cell_length_c       10.30228053409233
_cell_angle_alpha    85.56070437420854
_cell_angle_beta     89.99556275837644
_cell_angle_gamma    89.9992255405461

_space_group_name_H-M_alt    "P 1"
_space_group_IT_number       1

loop_
  _space_group_symop_operation_xyz
  'x, y, z'

loop_
  _atom_site_type_symbol
  _atom_site_label
  _atom_site_symmetry_multiplicity
  _atom_site_fract_x
  _atom_site_fract_y
  _atom_site_fract_z
  _atom_site_occupancy
  N   N1        1.0  0.13844338846019322  0.42095594311626416  0.5677906673422553  1.0000
  C   C1        1.0  0.08373537489554495  0.3941778653228585  0.6618241196664585  1.0000
  C   C2        1.0  0.01548279990475865  0.36077058956858904  0.7791366015487042  1.0000
  C   C3        1.0  0.07749774230241878  0.3276472512397255  0.8954520939261612  1.0000
  C   C4        1.0  0.012207586183906603  0.2952098659606164  0.00935888878777358  1.0000
  N   N2        1.0  0.8893658372583754  0.2958623439002903  0.00706766269649861  1.0000
  C   C5        1.0  0.8266048450199004  0.3275900353827979  0.8956531126532796  1.0000
  C   C6        1.0  0.8881446810458905  0.3608234176037777  0.7789509757373568  1.0000
  C   C7        1.0  0.8197989748521641  0.3942088551875449  0.6617153015650397  1.0000
  N   N3        1.0  0.7650162216246383  0.42097073630038406  0.5677389159906041  1.0000
  H   H1        1.0  0.17542923708449362  0.32689858164663743  0.8980811047066594  1.0000
  H   H2        1.0  0.059286896960971  0.2694717304165499  0.09974047266618356  1.0000
  H   H3        1.0  0.7287217331052317  0.32685662288515127  0.89822856876527  1.0000
  C   C8        1.0  0.4517356126907383  0.03969019931826745  0.5677704132506824  1.0000
  C   C9        1.0  0.3948818695082901  0.9187274662522854  0.5966021668076782  1.0000
  C   C10       1.0  0.4517355544843988  0.8022264334798519  0.5677704456035602  1.0000
  C   C11       1.0  0.5667048844193288  0.8079680400326333  0.5094669789639295  1.0000
  C   C12       1.0  0.6235695749009867  0.9277007019580817  0.48062959657025983  1.0000
  C   C13       1.0  0.5667048666045387  0.042970983433012755  0.5094668908253108  1.0000
  H   H4        1.0  0.23493007279507827  0.24069895744552117  0.67771730169689  1.0000
  H   H5        1.0  0.30630186348606037  0.9152518173658991  0.6415229051234277  1.0000
  H   H6        1.0  0.23493047543939147  0.5842034478284106  0.6777183170102417  1.0000
  H   H7        1.0  0.6127494903119102  0.7199823697326081  0.48611679198496205  1.0000
  H   H8        1.0  0.712113053649971  0.9311750804894099  0.4357272655574573  1.0000
  H   H9        1.0  0.6127495074598766  0.13457001961807924  0.48611665276298605  1.0000
  C   C14       1.0  0.4517356065795486  0.42095830363325604  0.1865022619834833  1.0000
  C   C15       1.0  0.41015050012444787  0.47169180783981535  0.06384698722671023  1.0000
  C   C16       1.0  0.4517355972396896  0.4209583020009265  0.9490385770195156  1.0000
  C   C17       1.0  0.535828752984581  0.31836536085047773  0.9582029467344637  1.0000
  C   C18       1.0  0.5774219692972373  0.2676220891585821  0.07962853445334916  1.0000
  C   C19       1.0  0.5358288887108409  0.3183653775837765  0.19320585727964087  1.0000
  H   H10       1.0  0.29315516296241534  0.6144249022007273  0.38105633264642286  1.0000
  H   H11       1.0  0.34535968528435873  0.5507362795980428  0.05773417950101089  1.0000
  H   H12       1.0  0.29315443398797636  0.6144242325190932  0.7245612030823501  1.0000
  H   H13       1.0  0.5695076489038084  0.27727744185915326  0.871588175322422  1.0000
  H   H14       1.0  0.6421862030196362  0.18861036237514714  0.08573901119700333  1.0000
  H   H15       1.0  0.5695077830804388  0.27727742929206034  0.28617566458946553  1.0000
  Zn  Zn1       1.0  0.31925878410094666  0.4209567234556497  0.5677832367933802  1.0000
  Zn  Zn2       1.0  0.5842008404566532  0.42095928778639635  0.5677570026798697  1.0000
  C   C20       1.0  0.45173289764717417  0.41578594789707696  0.8049028826014242  1.0000
  C   C21       1.0  0.45172962006938755  0.4261317015809119  0.3306374840181427  1.0000
  C   C22       1.0  0.4517293696320839  0.6580908557519511  0.5625966166090474  1.0000
  C   C23       1.0  0.45173305767832156  0.18382523381455895  0.5729438192397902  1.0000
  O   O1        1.0  0.5522717405719331  0.42786325002378156  0.37900062551506486  1.0000
  O   O2        1.0  0.5522756675767626  0.4140553662455153  0.7565194562720892  1.0000
  O   O3        1.0  0.5522714632769774  0.6097196436890568  0.5608554322604378  1.0000
  O   O4        1.0  0.5522758544649427  0.2321989818672494  0.5746645521867269  1.0000
  O   O5        1.0  0.35118367968093617  0.6097170293753355  0.5608756872886457  1.0000
  O   O6        1.0  0.3511878839751567  0.4140543118438104  0.7565396420731496  1.0000
  O   O7        1.0  0.35118395705076483  0.4278621503774223  0.379019250327959  1.0000
  O   O8        1.0  0.35118807093882887  0.23219787293441896  0.5746832743417334  1.0000
