data_image0
_chemical_formula_structural       NC8NC6H8C7OCH9C6OCH6Zn2C4O8
_chemical_formula_sum              "N2 C33 H23 O10 Zn2"
_cell_length_a       17.457602349358154
_cell_length_b       10.300832083147542
_cell_length_c       9.27389158865715
_cell_angle_alpha    86.0566932857514
_cell_angle_beta     92.54290593679646
_cell_angle_gamma    91.68357009181102

_space_group_name_H-M_alt    "P 1"
_space_group_IT_number       1

loop_
  _space_group_symop_operation_xyz
  'x, y, z'

loop_
  _atom_site_type_symbol
  _atom_site_label
  _atom_site_symmetry_multiplicity
  _atom_site_fract_x
  _atom_site_fract_y
  _atom_site_fract_z
  _atom_site_occupancy
  N   N1        1.0  0.7268710252609587  0.4405107707315621  0.4754341656860362  1.0000
  C   C1        1.0  0.6658306009031639  0.39449580203257084  0.4636728280445701  1.0000
  C   C2        1.0  0.5898936982114494  0.33725897943625704  0.44905230941636626  1.0000
  C   C3        1.0  0.5311160536329541  0.37808129281229186  0.532142049355198  1.0000
  C   C4        1.0  0.45661509240192455  0.32296797957625745  0.5182024848707582  1.0000
  C   C5        1.0  0.3942318571542748  0.36607244614728107  0.6061977200548021  1.0000
  C   C6        1.0  0.3198679311969311  0.3840444784151434  0.5443163469821344  1.0000
  C   C7        1.0  0.26108993816390214  0.42468384146236104  0.6275259413783544  1.0000
  C   C8        1.0  0.18529512401840437  0.44324201849754435  0.5631860964523876  1.0000
  N   N2        1.0  0.12436900980606333  0.458156415088367  0.5114570311897688  1.0000
  C   C9        1.0  0.2761820193179477  0.4475988007308551  0.7731810578048928  1.0000
  C   C10       1.0  0.3497599426304627  0.4300191556656506  0.8354923534118643  1.0000
  C   C11       1.0  0.40852481253447825  0.389563889455558  0.7527905695649897  1.0000
  C   C12       1.0  0.44218518067505935  0.22634228912824833  0.41958349768359726  1.0000
  C   C13       1.0  0.5009497736646752  0.18580217687120015  0.33693748737861573  1.0000
  C   C14       1.0  0.5746641508370055  0.24103273274662618  0.3514872236735398  1.0000
  H   H1        1.0  0.5432363916554277  0.4538594013142436  0.6060454044980356  1.0000
  H   H2        1.0  0.30785994898229996  0.3681707270029815  0.4311174567299767  1.0000
  H   H3        1.0  0.23112546983114204  0.4790004567024589  0.8384524204374223  1.0000
  H   H4        1.0  0.36125535808478704  0.44744710750371297  0.9482764799409963  1.0000
  H   H5        1.0  0.46485932008539227  0.37498245988937007  0.8039552939572654  1.0000
  H   H6        1.0  0.38573812090630305  0.18091661169512732  0.407781858179028  1.0000
  H   H7        1.0  0.4893471327535178  0.11112979432689185  0.2617040649265221  1.0000
  H   H8        1.0  0.6197191078136455  0.2087659956549158  0.2867833317934349  1.0000
  C   C15       1.0  0.9256446459476645  0.06799916095799974  0.4935990798995888  1.0000
  C   C16       1.0  0.904728654740324  0.07529443781359602  0.34534473549521727  1.0000
  C   C17       1.0  0.8933003491612737  0.9617843989166002  0.27104677585679915  1.0000
  C   C18       1.0  0.9046744174438552  0.840029995777427  0.3449589851371311  1.0000
  C   C19       1.0  0.9256027071654519  0.8306584269579037  0.49330527588756024  1.0000
  C   C20       1.0  0.9357849202912086  0.9451607802262513  0.5668211805467194  1.0000
  C   C21       1.0  0.8731229420803162  0.9708764421894945  0.11155662402104816  1.0000
  O   O1        1.0  0.9414914419720549  0.9791563504441803  0.0353534171187837  1.0000
  C   C22       1.0  0.9233229095982978  0.9877709690410031  0.8854139894174247  1.0000
  H   H9        1.0  0.8972558355501993  0.16917887028744794  0.2870454111079499  1.0000
  H   H10       1.0  0.8971636673193522  0.7527632025910315  0.28639477998784235  1.0000
  H   H11       1.0  0.9519227669439514  0.9387717468875963  0.6811577084465734  1.0000
  H   H12       1.0  0.9659248860658499  0.6057939351069241  0.7727861173930886  1.0000
  H   H13       1.0  0.8378813184241864  0.05838705746500139  0.08426659086158406  1.0000
  H   H14       1.0  0.8379130930844183  0.8832963113998418  0.08393896441299709  1.0000
  H   H15       1.0  0.9775439975083399  0.9942006505329932  0.827017394487954  1.0000
  H   H16       1.0  0.8907422564247123  0.07698810684932968  0.852403263927549  1.0000
  H   H17       1.0  0.8907566455967695  0.8995038232735529  0.8520473866453376  1.0000
  C   C23       1.0  0.9268803735243234  0.44594539971886094  0.0702920273001517  1.0000
  C   C24       1.0  0.9896900686147131  0.5035823736665392  0.1445369379363426  1.0000
  C   C25       1.0  0.048148564418721645  0.570722911586711  0.07000039179034268  1.0000
  C   C26       1.0  0.04400640093802812  0.5805611456471625  0.9181805880855619  1.0000
  C   C27       1.0  0.9828081544427272  0.522209421434261  0.8427398145655873  1.0000
  C   C28       1.0  0.9243669375845673  0.45271214110038716  0.9166122745103285  1.0000
  O   O2        1.0  0.10886368608765863  0.6266680635879176  0.15068899946690428  1.0000
  C   C29       1.0  0.17202097600149902  0.697813091571831  0.08931020811969614  1.0000
  H   H18       1.0  0.7444461689881201  0.3580892661942945  0.16480667144206818  1.0000
  H   H19       1.0  0.08818726171416502  0.6321095421504412  0.8572434432246334  1.0000
  H   H20       1.0  0.8027078447669888  0.38846626102830384  0.630166765218001  1.0000
  H   H21       1.0  0.1514273713183396  0.784774456745791  0.023014936088180615  1.0000
  H   H22       1.0  0.20400549524131273  0.6347849469353399  0.02182061579826299  1.0000
  H   H23       1.0  0.2112816325920588  0.7305951983725972  0.17769990881619502  1.0000
  Zn  Zn1       1.0  0.8415803326861093  0.4455995066609413  0.4858379080421055  1.0000
  Zn  Zn2       1.0  0.009659653679875865  0.453057126625183  0.5010650905982208  1.0000
  C   C30       1.0  0.9248406171168981  0.44625983178991324  0.7566414834928936  1.0000
  C   C31       1.0  0.9264012041598577  0.4523985225362837  0.23026182223102756  1.0000
  C   C32       1.0  0.9256237199205082  0.6864535044769238  0.4876181514389806  1.0000
  C   C33       1.0  0.9256180438602083  0.2122032877564864  0.4992852265160052  1.0000
  O   O3        1.0  0.9900256172199848  0.4573887121825427  0.2897277853575402  1.0000
  O   O4        1.0  0.9887845208861082  0.4469288201878681  0.7087321851579971  1.0000
  O   O5        1.0  0.9894160219984948  0.6408882223749252  0.4914938627196325  1.0000
  O   O6        1.0  0.9893940590738753  0.26342931587621177  0.506965994551128  1.0000
  O   O7        1.0  0.8618458699349091  0.635227314866346  0.47993699888532726  1.0000
  O   O8        1.0  0.8612143689613609  0.4412694722285085  0.6971752438887568  1.0000
  O   O9        1.0  0.8624554704939599  0.45172930512125414  0.27816911160804403  1.0000
  O   O10       1.0  0.8618239120243728  0.2577699003906304  0.49540742884253897  1.0000
