data_image0
_chemical_formula_structural       NC5NC3H4C6NH7C7NH4Zn2C4O8
_chemical_formula_sum              "N4 C25 H15 Zn2 O8"
_cell_length_a       13.859018345313864
_cell_length_b       9.274771166103582
_cell_length_c       9.275157849593905
_cell_angle_alpha    86.00874675488272
_cell_angle_beta     89.74087919435236
_cell_angle_gamma    90.59704768766964

_space_group_name_H-M_alt    "P 1"
_space_group_IT_number       1

loop_
  _space_group_symop_operation_xyz
  'x, y, z'

loop_
  _atom_site_type_symbol
  _atom_site_label
  _atom_site_symmetry_multiplicity
  _atom_site_fract_x
  _atom_site_fract_y
  _atom_site_fract_z
  _atom_site_occupancy
  N   N1        1.0  0.9243118084478219  0.5633170077612395  0.4075130077487934  1.0000
  C   C1        1.0  0.8515296073771964  0.5242593518488121  0.45882624921602083  1.0000
  C   C2        1.0  0.7609928549211782  0.47567685980692714  0.5226530960295055  1.0000
  C   C3        1.0  0.6738963011552712  0.5230391028502643  0.4604297364480971  1.0000
  C   C4        1.0  0.5857625487948401  0.47567656808376607  0.5226529710420842  1.0000
  C   C5        1.0  0.49628972725351145  0.5242592381977371  0.45882615213466743  1.0000
  N   N2        1.0  0.42436290585792  0.5633169731899061  0.40751293880210815  1.0000
  C   C6        1.0  0.5849076757635414  0.38093778461582084  0.6471181818803149  1.0000
  C   C7        1.0  0.6718236843997715  0.33375786102152527  0.7091020909351149  1.0000
  C   C8        1.0  0.7597730207745496  0.38093808180927113  0.6471183849453053  1.0000
  H   H1        1.0  0.6746992026831784  0.5963695056495966  0.36409031536966907  1.0000
  H   H2        1.0  0.5172040087047733  0.3436588500078319  0.6960937940219092  1.0000
  H   H3        1.0  0.6710223495536832  0.26057633404976555  0.8052461170793503  1.0000
  H   H4        1.0  0.8266602728127386  0.34365938418760744  0.6960942182492389  1.0000
  C   C9        1.0  0.17137732414153195  0.13972798628631478  0.40829848966852667  1.0000
  C   C10       1.0  0.1495552406325753  0.22179509580005144  0.2794262460585484  1.0000
  C   C11       1.0  0.13674439093325663  0.15549618912600138  0.14973636331937512  1.0000
  C   C12       1.0  0.14580898826236524  0.005743649516085639  0.1479793682436461  1.0000
  C   C13       1.0  0.16585206256121648  0.9223400556049505  0.27508128411554345  1.0000
  C   C14       1.0  0.17730650471048337  0.9868950086669488  0.4067400068607645  1.0000
  N   N3        1.0  0.11551932000493025  0.2406491501292225  0.019447739022266923  1.0000
  H   H5        1.0  0.27903461170129806  0.2224269735909574  0.7236885139298648  1.0000
  H   H6        1.0  0.144691781831626  0.3383824711334542  0.2788726770483798  1.0000
  H   H7        1.0  0.13640901019500262  0.9532950464364625  0.04819608789081762  1.0000
  H   H8        1.0  0.1701165472491799  0.8061362747580263  0.27095402600638874  1.0000
  H   H9        1.0  0.24590087691236495  0.6918960695660147  0.6213168930702104  1.0000
  H   H10       1.0  0.10887148309949299  0.3527226013789422  0.019400932630904807  1.0000
  H   H11       1.0  0.10620316759526992  0.19224058872872019  0.9220344303111335  1.0000
  C   C15       1.0  0.17559369104629852  0.5592341740459974  0.9843289637010835  1.0000
  C   C16       1.0  0.25908839208331425  0.6062581497333857  0.05393848173857929  1.0000
  C   C17       1.0  0.3377128618219998  0.6646246854062399  0.9739529360910404  1.0000
  C   C18       1.0  0.33376094855355865  0.6768951527204583  0.8232714155438337  1.0000
  C   C19       1.0  0.2522418350616522  0.6287031181893421  0.7523225043752757  1.0000
  C   C20       1.0  0.17309014979906312  0.5673887455702891  0.8307095326484117  1.0000
  C   C21       1.0  0.422167324909663  0.7136574751180578  0.04686635064041434  1.0000
  N   N4        1.0  0.49004708377842254  0.7530666167550404  0.10547644479203444  1.0000
  H   H12       1.0  0.9404850318366546  0.5105988661502405  0.09225606058847724  1.0000
  H   H13       1.0  0.3941639428737792  0.722522296780848  0.7603646760977658  1.0000
  H   H14       1.0  0.25208145548589433  0.6362867742395845  0.6352441131561282  1.0000
  H   H15       1.0  0.015761586490013576  0.5285868671843721  0.5533744233731235  1.0000
  Zn  Zn1       1.0  0.06861570014226093  0.5633132062169499  0.4075213262806034  1.0000
  Zn  Zn2       1.0  0.28005887276794184  0.5633090504726497  0.4075164783984213  1.0000
  C   C22       1.0  0.1735209789954757  0.5601009471979952  0.6707360285616022  1.0000
  C   C23       1.0  0.17515591518723544  0.5665231308348648  0.14430191416079396  1.0000
  C   C24       1.0  0.1761977718449538  0.8267070483575307  0.4012918815005048  1.0000
  C   C25       1.0  0.17247903783049723  0.29991529737835343  0.413746141243194  1.0000
  O   O1        1.0  0.2552505316325  0.5689615012579898  0.19798846953704238  1.0000
  O   O2        1.0  0.25390683172221173  0.5576583304798108  0.617045380914435  1.0000
  O   O3        1.0  0.25606728967351033  0.7729461433189659  0.3994673230661192  1.0000
  O   O4        1.0  0.25309000192180564  0.35367369769791007  0.415566419315144  1.0000
  O   O5        1.0  0.09558449883325325  0.7729485589946055  0.399471385357952  1.0000
  O   O6        1.0  0.09342405323407066  0.5576624784553419  0.6170493631790364  1.0000
  O   O7        1.0  0.09476775798178294  0.568965582274112  0.19799071926843204  1.0000
  O   O8        1.0  0.09260722787533981  0.3536777694378723  0.4155687771108201  1.0000
