data_image0
_chemical_formula_structural       NC8NH4C10H5C9H6Zn2C4O8
_chemical_formula_sum              "N2 C31 H15 Zn2 O8"
_cell_length_a       14.927258825633057
_cell_length_b       9.275150299802176
_cell_length_c       9.275153671780862
_cell_angle_alpha    85.37735250896073
_cell_angle_beta     89.40940107803101
_cell_angle_gamma    89.48389196497259

_space_group_name_H-M_alt    "P 1"
_space_group_IT_number       1

loop_
  _space_group_symop_operation_xyz
  'x, y, z'

loop_
  _atom_site_type_symbol
  _atom_site_label
  _atom_site_symmetry_multiplicity
  _atom_site_fract_x
  _atom_site_fract_y
  _atom_site_fract_z
  _atom_site_occupancy
  N   N1        1.0  0.8449974816840676  0.5749703501234646  0.4005682331244831  1.0000
  C   C1        1.0  0.7674710574216997  0.5749703236834733  0.40056824292990634  1.0000
  C   C2        1.0  0.6710384153238548  0.5749703235346899  0.40056829803098454  1.0000
  C   C3        1.0  0.6250536631059547  0.4863819713647815  0.31130142421961027  1.0000
  C   C4        1.0  0.5313423522325655  0.4863818814157286  0.31130139625566533  1.0000
  C   C5        1.0  0.4832224181838902  0.5749703763790888  0.4005682098834451  1.0000
  C   C6        1.0  0.5292071710420413  0.6635587385919763  0.48983497553133376  1.0000
  C   C7        1.0  0.622918548906945  0.6635588285380773  0.4898350035012219  1.0000
  C   C8        1.0  0.3867897773361959  0.5749702785700483  0.40056815548157176  1.0000
  N   N2        1.0  0.30926335246392833  0.5749703598332934  0.4005681666264609  1.0000
  H   H1        1.0  0.6615804190634734  0.41745503773429726  0.24184680666130706  1.0000
  H   H2        1.0  0.4964767626880093  0.41745501429755233  0.24184690405806927  1.0000
  H   H3        1.0  0.4926804150845227  0.7324856722224609  0.5592895930896367  1.0000
  H   H4        1.0  0.6577840708197358  0.7324856856162263  0.5592896038563608  1.0000
  C   C9        1.0  0.07948292241506194  0.1512709644083139  0.402982154793206  1.0000
  C   C10       1.0  0.12729407587205666  0.23304440118103556  0.2938935894884337  1.0000
  C   C11       1.0  0.1674580274992188  0.16660205708856335  0.17926128634396568  1.0000
  C   C12       1.0  0.16022039144573783  0.017416614065309147  0.17224103225508824  1.0000
  C   C13       1.0  0.11436919156963321  0.9341976813072616  0.28068155590447086  1.0000
  C   C14       1.0  0.07478645599212676  0.9986585995559046  0.3981668166177067  1.0000
  C   C15       1.0  0.21529606900463727  0.2521112606191771  0.06767852210016256  1.0000
  C   C16       1.0  0.2553485677534857  0.3237276299881815  0.9742604914634801  1.0000
  C   C17       1.0  0.3022481868368603  0.40759535064789304  0.8648720517492486  1.0000
  C   C18       1.0  0.34229296361783734  0.47920628360563017  0.7714719286924093  1.0000
  H   H5        1.0  0.13158403205493063  0.3494984545944986  0.2961211382719997  1.0000
  H   H6        1.0  0.19081966357812338  0.9650449110464244  0.08353971461797238  1.0000
  H   H7        1.0  0.11166945760961022  0.8181817214498389  0.2744562820280897  1.0000
  H   H8        1.0  0.014376831469686381  0.8690627821083942  0.7407594020760946  1.0000
  H   H9        1.0  0.37745561760652246  0.5420867624623347  0.6894589062899437  1.0000
  C   C19       1.0  0.07985210228320305  0.5738804318724813  0.9771510212128152  1.0000
  C   C20       1.0  0.10269935610941784  0.7013930985480787  0.0401701243320014  1.0000
  C   C21       1.0  0.11716902165276544  0.830263844095559  0.9544454128156197  1.0000
  C   C22       1.0  0.10887576602583904  0.8332270392713979  0.804488055040234  1.0000
  C   C23       1.0  0.0877506830328163  0.7073236893063748  0.7398414039047707  1.0000
  C   C24       1.0  0.07441732879708995  0.5760491376648864  0.8239979746736644  1.0000
  C   C25       1.0  0.13952932092610348  0.9601499972272974  0.020816389755228034  1.0000
  C   C26       1.0  0.15825155261948454  0.0688928290596289  0.07641013741138658  1.0000
  C   C27       1.0  0.19889296488869324  0.30494793666492326  0.19710723975530509  1.0000
  H   H10       1.0  0.08528860265750926  0.33490619334937294  0.27704546613118497  1.0000
  H   H11       1.0  0.1072177765806499  0.7014661491697449  0.15678510122879197  1.0000
  H   H12       1.0  0.11961865384552285  0.9327022155287867  0.7372161056005422  1.0000
  H   H13       1.0  0.08391629541686374  0.7118412339667084  0.6229840560918108  1.0000
  H   H14       1.0  0.08761331138492512  0.22121037656107823  0.7495155500852877  1.0000
  H   H15       1.0  0.21532943608161936  0.4004148026201189  0.24592119328876436  1.0000
  Zn  Zn1       1.0  0.9789745598920422  0.5749665004131377  0.40057657106956995  1.0000
  Zn  Zn2       1.0  0.17528627701074528  0.5749623949728773  0.4005717361778545  1.0000
  C   C28       1.0  0.07547445392142826  0.5698912864486627  0.6639584060049933  1.0000
  C   C29       1.0  0.07878851570128331  0.580039429754916  0.13719003236701782  1.0000
  C   C30       1.0  0.07570647469471159  0.8384696057681846  0.39333116241427796  1.0000
  C   C31       1.0  0.07855643705462498  0.31145937714358585  0.4078173626838242  1.0000
  O   O1        1.0  0.15293087477421377  0.5820985930976077  0.1908987874382071  1.0000
  O   O2        1.0  0.1503281544940238  0.567827917640956  0.6102455724771493  1.0000
  O   O3        1.0  0.1505145002949324  0.7847083109885078  0.39171215004450904  1.0000
  O   O4        1.0  0.15274446262204197  0.36521820979598774  0.4094321017014184  1.0000
  O   O5        1.0  0.0015163072892308011  0.7847106855929797  0.39171620554006337  1.0000
  O   O6        1.0  0.0013299523701832978  0.5678320255401885  0.6102495412406697  1.0000
  O   O7        1.0  0.0039326841141906765  0.5821026462780359  0.1909010229070202  1.0000
  O   O8        1.0  0.003746271321767528  0.3652222529334366  0.40943444533371776  1.0000
