data_image0
_chemical_formula_structural       NC12NC2H8C7NH5C6NCOH5Zn2C4O8
_chemical_formula_sum              "N4 C32 H18 O9 Zn2"
_cell_length_a       19.240039667572717
_cell_length_b       9.275154477615127
_cell_length_c       9.273733555595829
_cell_angle_alpha    86.40037001266045
_cell_angle_beta     90.0110552776814
_cell_angle_gamma    89.43370810513201

_space_group_name_H-M_alt    "P 1"
_space_group_IT_number       1

loop_
  _space_group_symop_operation_xyz
  'x, y, z'

loop_
  _atom_site_type_symbol
  _atom_site_label
  _atom_site_symmetry_multiplicity
  _atom_site_fract_x
  _atom_site_fract_y
  _atom_site_fract_z
  _atom_site_occupancy
  N   N1        1.0  0.6468928330080721  0.5608913559276185  0.4164505539353596  1.0000
  C   C1        1.0  0.5867444637427713  0.5608914481909442  0.4164504633736543  1.0000
  C   C2        1.0  0.5119264259748528  0.5608915767709071  0.4164503115122309  1.0000
  C   C3        1.0  0.47579850394286327  0.4905509996941149  0.530931588669332  1.0000
  C   C4        1.0  0.4031283463612791  0.49042892595600185  0.5310271420311499  1.0000
  C   C5        1.0  0.3655941905373183  0.5608916768298602  0.4164500592405398  1.0000
  C   C6        1.0  0.40243571212057905  0.6313546376167465  0.30187319318089334  1.0000
  C   C7        1.0  0.4751069923540617  0.6312323038779968  0.30196888145024303  1.0000
  C   C8        1.0  0.2883891005093213  0.5608915883623585  0.4164499529992134  1.0000
  C   C9        1.0  0.2518023185208503  0.4356443899335883  0.4624159133245276  1.0000
  C   C10       1.0  0.1791310604525847  0.43576198690246143  0.4623150341297879  1.0000
  C   C11       1.0  0.14205681427220207  0.560891445675663  0.41645002002476916  1.0000
  C   C12       1.0  0.067238777730446  0.560891322354172  0.4164502954849958  1.0000
  N   N2        1.0  0.007090461103973402  0.5608912795109637  0.4164505266085201  1.0000
  C   C13       1.0  0.1779300785448908  0.6860209880055078  0.3705849475577019  1.0000
  C   C14       1.0  0.2506002041183484  0.686138783015044  0.37048388871376825  1.0000
  H   H1        1.0  0.5037811209754135  0.43609985553469205  0.620317190386662  1.0000
  H   H2        1.0  0.3762986211856459  0.43687711449309363  0.6216542772372176  1.0000
  H   H3        1.0  0.3750789063626278  0.6849064785089474  0.21124600166303042  1.0000
  H   H4        1.0  0.5025541473277501  0.685683340005085  0.21258358536702904  1.0000
  H   H5        1.0  0.2793686198428783  0.3370323350583069  0.49661041259694877  1.0000
  H   H6        1.0  0.1518845365647512  0.33816052110700606  0.4976599120184697  1.0000
  H   H7        1.0  0.1497467791153961  0.7836224267325701  0.33524008570831776  1.0000
  H   H8        1.0  0.2772203811926524  0.7847509252617622  0.33628934010490563  1.0000
  C   C15       1.0  0.8290061660147406  0.1374841354186527  0.41478269421929714  1.0000
  C   C16       1.0  0.809922989585516  0.21929928264822654  0.2877051906437036  1.0000
  C   C17       1.0  0.7851867857647763  0.1519691707939057  0.1673591730552968  1.0000
  C   C18       1.0  0.7791264897976269  0.001905684200392835  0.17267332375310684  1.0000
  C   C19       1.0  0.7988537154175134  0.9188517719377063  0.2968541966451763  1.0000
  C   C20       1.0  0.8249838584707173  0.9842875897731964  0.418130811774893  1.0000
  C   C21       1.0  0.7651788684641851  0.23734969141752837  0.03875005430579949  1.0000
  N   N3        1.0  0.7490980526857094  0.3059800775388606  0.9353812657606464  1.0000
  H   H9        1.0  0.842497759209337  0.21795237909556667  0.7685645203394187  1.0000
  H   H10       1.0  0.812761255564569  0.3362127828356063  0.2834287333011105  1.0000
  H   H11       1.0  0.7597448229594242  0.9487863660121404  0.0801798509708469  1.0000
  H   H12       1.0  0.7952040495514529  0.8023828149315985  0.2967273568125224  1.0000
  H   H13       1.0  0.8370174740350318  0.6880615667557157  0.6551746979597163  1.0000
  C   C22       1.0  0.8269768178256507  0.5563431144628528  0.9932117652005523  1.0000
  C   C23       1.0  0.7631357178138849  0.5480674852757301  0.06713052373258077  1.0000
  C   C24       1.0  0.699871193252369  0.5514765230598411  0.992194533228957  1.0000
  C   C25       1.0  0.7004069803650607  0.5678479605875357  0.8409115271730347  1.0000
  C   C26       1.0  0.7632132171614775  0.573972068174099  0.765780269735858  1.0000
  C   C27       1.0  0.827013200431728  0.5654285670837882  0.8397017195147987  1.0000
  N   N4        1.0  0.6358088114107923  0.5464194993957028  0.07218904077690724  1.0000
  C   C28       1.0  0.5735061363659681  0.48002393868971655  0.02514412098447405  1.0000
  O   O1        1.0  0.5735030989916108  0.40372049553122813  0.9174916030601575  1.0000
  H   H14       1.0  0.9902839857812703  0.6564605285081073  0.08992101257523766  1.0000
  H   H15       1.0  0.6523605872483332  0.5774478438989543  0.7803348822261147  1.0000
  H   H16       1.0  0.9375803376851088  0.6267651948728796  0.5548379639449204  1.0000
  H   H17       1.0  0.635377797105095  0.584756790135265  0.1757596159903292  1.0000
  H   H18       1.0  0.5259438939367138  0.49211601430396035  0.0856127828201032  1.0000
  Zn  Zn1       1.0  0.7508381155928452  0.5608875736827079  0.41645884151903  1.0000
  Zn  Zn2       1.0  0.903145253661513  0.5608834268055418  0.4164539552311602  1.0000
  C   C29       1.0  0.8270320576416362  0.5579672639293392  0.6796742635883883  1.0000
  C   C30       1.0  0.8269529661666122  0.5638055572767826  0.15323868176418642  1.0000
  C   C31       1.0  0.8257403328375269  0.8241620470036776  0.41175448149164007  1.0000
  C   C32       1.0  0.828244647230634  0.2976090427336838  0.42115853385483826  1.0000
  O   O2        1.0  0.8847447563524666  0.5663021572603383  0.20694329763573127  1.0000
  O   O3        1.0  0.8848378662514356  0.5554664243914076  0.6259655199407776  1.0000
  O   O4        1.0  0.8837940030319642  0.7704220943229301  0.40961840627326995  1.0000
  O   O5        1.0  0.885788567546191  0.3513464964846218  0.42329030327883443  1.0000
  O   O6        1.0  0.7681947497332079  0.7704245040065314  0.40962249346544827  1.0000
  O   O7        1.0  0.7692386047178074  0.5554705655466727  0.625969537133144  1.0000
  O   O8        1.0  0.7691454950292417  0.5663062295721959  0.2069455817798176  1.0000
  O   O9        1.0  0.7701893062737537  0.3513505596435764  0.4232926954414178  1.0000
