data_image0
_chemical_formula_structural       NC8NH4C7NH5C6OCH7Zn2C4O8
_chemical_formula_sum              "N3 C26 H16 O9 Zn2"
_cell_length_a       11.048855714531884
_cell_length_b       9.275154477615127
_cell_length_c       9.273891588657152
_cell_angle_alpha    86.29931945807607
_cell_angle_beta     89.68013134721441
_cell_angle_gamma    89.43371274831733

_space_group_name_H-M_alt    "P 1"
_space_group_IT_number       1

loop_
  _space_group_symop_operation_xyz
  'x, y, z'

loop_
  _atom_site_type_symbol
  _atom_site_label
  _atom_site_symmetry_multiplicity
  _atom_site_fract_x
  _atom_site_fract_y
  _atom_site_fract_z
  _atom_site_occupancy
  N   N1        1.0  0.13412882137449667  0.5636008025303536  0.4162806066019906  1.0000
  C   C1        1.0  0.08050389055195666  0.5048961963759822  0.3310608487263573  1.0000
  C   C2        1.0  0.013596524154153583  0.43164958184682956  0.22473064527315073  1.0000
  C   C3        1.0  0.8858797698675841  0.4316493922231839  0.22473074624296596  1.0000
  C   C4        1.0  0.8242026813485733  0.359241847444721  0.11961888805609176  1.0000
  C   C5        1.0  0.8887129743237511  0.28740704608119594  0.015338384281661678  1.0000
  C   C6        1.0  0.01511918755099995  0.2874069361803615  0.015338406509561418  1.0000
  C   C7        1.0  0.07746021947872685  0.35924194561345124  0.1196188607295654  1.0000
  C   C8        1.0  0.8167604689132678  0.5048962711776712  0.3310608358906766  1.0000
  N   N2        1.0  0.761362707021735  0.5636008454540695  0.41628063556332173  1.0000
  H   H1        1.0  0.7261541342347925  0.3583351310496916  0.11830199303248046  1.0000
  H   H2        1.0  0.8406564046010063  0.2316903023021754  0.9344566135605454  1.0000
  H   H3        1.0  0.06485844492121554  0.23169041170041083  0.9344566133857177  1.0000
  H   H4        1.0  0.17553614509509807  0.3583350844936881  0.11830226796444897  1.0000
  C   C9        1.0  0.4512618278976564  0.14019646333824687  0.41461261263174687  1.0000
  C   C10       1.0  0.4186454644422172  0.2222290288486726  0.2875214535261701  1.0000
  C   C11       1.0  0.37615260136817075  0.15510481728841863  0.16716250211836334  1.0000
  C   C12       1.0  0.36557375213430077  0.005032237612864864  0.17247722217439665  1.0000
  C   C13       1.0  0.39932564036358215  0.9217658631104579  0.29667143959558895  1.0000
  C   C14       1.0  0.4442413552580722  0.9869941886733422  0.4179610888544032  1.0000
  C   C15       1.0  0.341933334998497  0.24070537654418092  0.03853956308282713  1.0000
  N   N3        1.0  0.3144305496650912  0.30951261736342883  0.9351596665678382  1.0000
  H   H5        1.0  0.4730452852028044  0.2200594118140562  0.7684324457642485  1.0000
  H   H6        1.0  0.4236085818298926  0.3391498462031195  0.28324453750111234  1.0000
  H   H7        1.0  0.33227042156970527  0.952071166675688  0.07997380884830085  1.0000
  H   H8        1.0  0.39297086998098063  0.8052971225633813  0.29654458523763005  1.0000
  H   H9        1.0  0.4640502880729004  0.69036260111029  0.6550304415568526  1.0000
  C   C16       1.0  0.4497659792131215  0.5597767219899887  0.9929963974371828  1.0000
  C   C17       1.0  0.5483767184441034  0.6206763657660044  0.06181091405401928  1.0000
  C   C18       1.0  0.6400330422212162  0.6923424703070326  0.9822845574075512  1.0000
  C   C19       1.0  0.6334055088164334  0.7034702187131006  0.8308879459247626  1.0000
  C   C20       1.0  0.5373447326435905  0.6416975469602697  0.760727779399395  1.0000
  C   C21       1.0  0.4457371710198897  0.5674138531533004  0.8395772368784296  1.0000
  O   O1        1.0  0.7353532177231997  0.7514668901764392  0.0577249619471003  1.0000
  C   C22       1.0  0.834389414577566  0.8273476602915868  0.9909486460455268  1.0000
  H   H10       1.0  0.16262027519531919  0.47122031885981847  0.10366344900455778  1.0000
  H   H11       1.0  0.7026687632072173  0.7585277910170418  0.7661835240161317  1.0000
  H   H12       1.0  0.5363065552200772  0.6491285449893541  0.6436759870592033  1.0000
  H   H13       1.0  0.2543011714745398  0.5020768371646003  0.5638762210345081  1.0000
  H   H14       1.0  0.8010923470118169  0.9249176176612489  0.9269388800385987  1.0000
  H   H15       1.0  0.8854472105735005  0.7557897833912879  0.9202530248220802  1.0000
  H   H16       1.0  0.8960579353748815  0.8618111626840681  0.07592847089550014  1.0000
  Zn  Zn1       1.0  0.31513497861088857  0.5635970219274282  0.41628892070896906  1.0000
  Zn  Zn2       1.0  0.5803566188177098  0.5635929065930174  0.4162840714553518  1.0000
  C   C23       1.0  0.44654364259419443  0.5602263796311566  0.6795326364970269  1.0000
  C   C24       1.0  0.44895083529062274  0.566965369353164  0.15304050428604943  1.0000
  C   C25       1.0  0.4455894745061331  0.8268795554974362  0.41158407380434037  1.0000
  C   C26       1.0  0.44990492687306094  0.3003104618983623  0.42098913698014817  1.0000
  O   O2        1.0  0.5493275479380428  0.5693700930951613  0.206750903425996  1.0000
  O   O3        1.0  0.5474640290451831  0.5578174409922236  0.6258181376441263  1.0000
  O   O4        1.0  0.5466921623010131  0.7731432663361393  0.4094477834422168  1.0000
  O   O5        1.0  0.5500993246088548  0.3540442770918657  0.4231211495918845  1.0000
  O   O6        1.0  0.3453921823126376  0.7731456514314854  0.4094518425665157  1.0000
  O   O7        1.0  0.34616403505532434  0.5578215576789973  0.6258221267610922  1.0000
  O   O8        1.0  0.34802756269255397  0.5693741439036581  0.20675315930851546  1.0000
  O   O9        1.0  0.3487993389296182  0.35404831856264773  0.4231235135045042  1.0000
