data_image0
_chemical_formula_structural       NC9NC5H8C7OC3OC4H12C7OC6OH12Zn2C4O8
_chemical_formula_sum              "N2 C45 H32 O12 Zn2"
_cell_length_a       17.807436237873137
_cell_length_b       10.299371110280156
_cell_length_c       10.299362532796529
_cell_angle_alpha    85.59679077391144
_cell_angle_beta     89.40785739381337
_cell_angle_gamma    88.40331171880233

_space_group_name_H-M_alt    "P 1"
_space_group_IT_number       1

loop_
  _space_group_symop_operation_xyz
  'x, y, z'

loop_
  _atom_site_type_symbol
  _atom_site_label
  _atom_site_symmetry_multiplicity
  _atom_site_fract_x
  _atom_site_fract_y
  _atom_site_fract_z
  _atom_site_occupancy
  N   N1        1.0  0.7073743654171762  0.38731725551484564  0.5575745705946795  1.0000
  C   C1        1.0  0.6467804788354109  0.3521242424143168  0.5465396615515301  1.0000
  C   C2        1.0  0.571408343757746  0.30834800976944376  0.5328134328766365  1.0000
  C   C3        1.0  0.5532913736329274  0.2369012935449555  0.42778878916409635  1.0000
  C   C4        1.0  0.48010889236973037  0.19428642388891992  0.41437884302252215  1.0000
  C   C5        1.0  0.4239946076748454  0.22274073149130283  0.5059609704974899  1.0000
  C   C6        1.0  0.346220523032793  0.17756704163172363  0.49179178049834366  1.0000
  C   C7        1.0  0.284058989183946  0.25933094366882403  0.5177562272311248  1.0000
  C   C8        1.0  0.2107341782198347  0.2165130403288098  0.504359898317005  1.0000
  C   C9        1.0  0.1475229674233823  0.3009684008564022  0.5306890915303076  1.0000
  N   N2        1.0  0.096714141349581  0.3688646680921569  0.5518570345546849  1.0000
  C   C10       1.0  0.1989873181449869  0.09167324767554487  0.46497369199809446  1.0000
  C   C11       1.0  0.2602914790490492  0.00989549082307062  0.43900085126535804  1.0000
  C   C12       1.0  0.3334967746596004  0.05231879240566828  0.45219451903804725  1.0000
  C   C13       1.0  0.44280308144054703  0.29468187972969373  0.6112049978736491  1.0000
  C   C14       1.0  0.5160383849467669  0.3371063081804899  0.6244592343651021  1.0000
  H   H1        1.0  0.59567232903733  0.2143944132105744  0.35606940342015303  1.0000
  H   H2        1.0  0.4671765199845844  0.14057914899928914  0.331442021655416  1.0000
  H   H3        1.0  0.29257380579870884  0.356804414501819  0.5466637057223838  1.0000
  H   H4        1.0  0.1425161557494359  0.05763404651388626  0.45436818229952003  1.0000
  H   H5        1.0  0.2510782427143189  0.9132417551580579  0.4088932264121635  1.0000
  H   H6        1.0  0.3801259697502586  0.9865680992035754  0.4331255830947485  1.0000
  H   H7        1.0  0.4011391331019676  0.3166501030964349  0.6842187047947427  1.0000
  H   H8        1.0  0.5294991092575639  0.3920338518225335  0.7063548187211134  1.0000
  C   C15       1.0  0.9019971747999839  0.9967217729230577  0.5546017142913257  1.0000
  C   C16       1.0  0.893320470825197  0.006380135160722887  0.41874669968195183  1.0000
  C   C17       1.0  0.8880956070007977  0.8941048945090768  0.3504058367554051  1.0000
  C   C18       1.0  0.8933578080868659  0.771110576921585  0.41905723123992145  1.0000
  C   C19       1.0  0.9020985151317613  0.7594498622769728  0.554841073619329  1.0000
  C   C20       1.0  0.9061709360954948  0.8728640895781031  0.6218681834414663  1.0000
  C   C21       1.0  0.8797170538681193  0.9041382428163015  0.20678468095088043  1.0000
  O   O1        1.0  0.910502894404144  0.8176214775801843  0.14231090419231454  1.0000
  C   C22       1.0  0.8364051582497523  0.01223908256714768  0.1363112816570422  1.0000
  C   C23       1.0  0.8573845229181664  0.056367245383995845  0.008863141998729514  1.0000
  C   C24       1.0  0.8167390731539029  0.15728639790991192  0.940080590424005  1.0000
  O   O2        1.0  0.8407051114941689  0.19792067462893348  0.8136332811764487  1.0000
  C   C25       1.0  0.8048824884136134  0.2990795132405595  0.7327259534894647  1.0000
  C   C26       1.0  0.7537282182268334  0.2141488425133753  0.9994928504619544  1.0000
  C   C27       1.0  0.7319773356649348  0.16976695902396255  0.1254352908234835  1.0000
  C   C28       1.0  0.7727559891185241  0.06912257192454274  0.19346372347600796  1.0000
  H   H9        1.0  0.9195174072068762  0.18578048595208285  0.8107323489622041  1.0000
  H   H10       1.0  0.8914521642289331  0.10138746792143614  0.36574546221675225  1.0000
  H   H11       1.0  0.8898956500893804  0.6843987570986607  0.3663866619104586  1.0000
  H   H12       1.0  0.9128605226317674  0.8646143758387137  0.7266024381967197  1.0000
  H   H13       1.0  0.906081170672507  0.42749339005678205  0.6068684291693498  1.0000
  H   H14       1.0  0.9059510590588106  0.013156037844153754  0.9627779876178951  1.0000
  H   H15       1.0  0.8355140546435064  0.3106912143995293  0.6384070863471032  1.0000
  H   H16       1.0  0.8059964785680034  0.3924972852481883  0.7797277291208903  1.0000
  H   H17       1.0  0.7460047103409738  0.27363083481795053  0.7138267493531371  1.0000
  H   H18       1.0  0.7210885532981852  0.292179998997677  0.9490846994342306  1.0000
  H   H19       1.0  0.6831266814558132  0.2131526764260725  0.1703029093458908  1.0000
  H   H20       1.0  0.7540299651105915  0.03489026441377563  0.29011549851645535  1.0000
  C   C29       1.0  0.9019891952909237  0.37796805738141037  0.17335532871413784  1.0000
  C   C30       1.0  0.8306685498917721  0.3226674199092347  0.17767180765642232  1.0000
  C   C31       1.0  0.7943727394465921  0.2961140085335363  0.06268257642231001  1.0000
  C   C32       1.0  0.8308801331730968  0.3228209504804438  0.942414452318693  1.0000
  C   C33       1.0  0.9021064980926591  0.3782035531357666  0.9360874573059812  1.0000
  C   C34       1.0  0.9371883853013917  0.4057160997424505  0.052103646006775195  1.0000
  C   C35       1.0  0.719441787786024  0.23636740799477798  0.06956577046645074  1.0000
  O   O3        1.0  0.7040824928341735  0.15788845562833465  0.1656628766500421  1.0000
  C   C36       1.0  0.6619381557961216  0.26564408578702214  0.967503790658159  1.0000
  C   C37       1.0  0.6561773810005014  0.3892901395968418  0.8997739446920653  1.0000
  C   C38       1.0  0.6011922545935754  0.4160758295439213  0.8048934542630786  1.0000
  C   C39       1.0  0.5506441836259974  0.3208068586192865  0.7765561107377806  1.0000
  C   C40       1.0  0.55561492327474  0.19739180336105377  0.8452158355890502  1.0000
  C   C41       1.0  0.6105933004610725  0.17047923368870335  0.940168789977419  1.0000
  O   O4        1.0  0.49656724444801204  0.3525295053407227  0.6803748942348019  1.0000
  H   H21       1.0  0.03669938481328593  0.48182283792996367  0.3725162135471898  1.0000
  H   H22       1.0  0.8028499642411128  0.3012448434189414  0.2706072266040671  1.0000
  H   H23       1.0  0.8040211471280567  0.29901375123742446  0.853746887293725  1.0000
  H   H24       1.0  0.9921345269724247  0.44843555462638324  0.047955609523590015  1.0000
  H   H25       1.0  0.9295564064426257  0.39896068529940143  0.6062221204330513  1.0000
  H   H26       1.0  0.6936332968098305  0.4657659535973549  0.9210728146871588  1.0000
  H   H27       1.0  0.59762548467761  0.5117046225729551  0.753412338290548  1.0000
  H   H28       1.0  0.5172961455020421  0.12164267528841455  0.8260266290814402  1.0000
  H   H29       1.0  0.6134301422073083  0.074703166202688  0.9915473754356392  1.0000
  H   H30       1.0  0.4064991372577325  0.3157319036845685  0.5642285706302119  1.0000
  H   H31       1.0  0.4050913452489907  0.2348902362938137  0.7258567680403414  1.0000
  H   H32       1.0  0.46977364250338083  0.17871750680288284  0.6026846330357638  1.0000
  Zn  Zn1       1.0  0.819729414050875  0.3819887744144401  0.5559321228477723  1.0000
  Zn  Zn2       1.0  0.9843590747540836  0.3741825663119132  0.5535101555116124  1.0000
  C   C42       1.0  0.9020819517975153  0.37298545007180706  0.7919131408125729  1.0000
  C   C43       1.0  0.9020083349955207  0.3831874440704357  0.31752923907869257  1.0000
  C   C44       1.0  0.9020746906019508  0.6152765943493694  0.5496207389572934  1.0000
  C   C45       1.0  0.9020155398178413  0.14089474217491094  0.5598217105089134  1.0000
  O   O5        1.0  0.9644908559646823  0.38197103688730516  0.36499619468219846  1.0000
  O   O6        1.0  0.9645495338433909  0.36827614609024784  0.742607593890765  1.0000
  O   O7        1.0  0.9645428283361116  0.5639293496358448  0.546954777947833  1.0000
  O   O8        1.0  0.9644975052812702  0.18631784526559692  0.5606489140805613  1.0000
  O   O9        1.0  0.8395909273436643  0.5698534981260439  0.5487933650984915  1.0000
  O   O10       1.0  0.8395976330441631  0.37420185486369606  0.7444461122861503  1.0000
  O   O11       1.0  0.8395389549693001  0.3878966999202933  0.36683315167366504  1.0000
  O   O12       1.0  0.8395456042965549  0.19224349903998372  0.5624859684362654  1.0000
