data_image0
_chemical_formula_structural       NC8NH4C6ClH5C6FH3Zn2C4O8
_chemical_formula_sum              "N2 C24 H12 Cl1 F1 Zn2 O8"
_cell_length_a       14.927258825633057
_cell_length_b       9.276545438789551
_cell_length_c       9.275646106892307
_cell_angle_alpha    84.98577803735094
_cell_angle_beta     90.02253336154234
_cell_angle_gamma    89.40960858786079

_space_group_name_H-M_alt    "P 1"
_space_group_IT_number       1

loop_
  _space_group_symop_operation_xyz
  'x, y, z'

loop_
  _atom_site_type_symbol
  _atom_site_label
  _atom_site_symmetry_multiplicity
  _atom_site_fract_x
  _atom_site_fract_y
  _atom_site_fract_z
  _atom_site_occupancy
  N   N1        1.0  0.8329661648555254  0.5950010902260008  0.40889473166041485  1.0000
  C   C1        1.0  0.7554397406803518  0.5950010636750408  0.4088947413096483  1.0000
  C   C2        1.0  0.6590070989536778  0.5950010627980487  0.4088947964628345  1.0000
  C   C3        1.0  0.6124921331986899  0.5076550662510211  0.31898704953334356  1.0000
  C   C4        1.0  0.5187808222089919  0.5076549767349943  0.318987020979012  1.0000
  C   C5        1.0  0.4711911011778255  0.5950011167703124  0.40889470856147847  1.0000
  C   C6        1.0  0.51770606683665  0.6823471247829211  0.4988023472862782  1.0000
  C   C7        1.0  0.6114174448179052  0.6823472142959196  0.49880237584654075  1.0000
  C   C8        1.0  0.3747584600420802  0.5950010197492894  0.40889465349453197  1.0000
  N   N2        1.0  0.2972320351798146  0.595001100807941  0.4088946651592069  1.0000
  H   H1        1.0  0.6486063535822936  0.4396947549107286  0.2490337953389179  1.0000
  H   H2        1.0  0.4835026978814617  0.4396947302031349  0.24903389268261922  1.0000
  H   H3        1.0  0.4815918464530465  0.7503074361232136  0.5687556014807036  1.0000
  H   H4        1.0  0.6466955022500418  0.7503074493652263  0.5687556123416944  1.0000
  C   C9        1.0  0.06780701668246958  0.1715684631004726  0.4086567916320485  1.0000
  C   C10       1.0  0.06809587170642906  0.256638469201542  0.27543992127330497  1.0000
  C   C11       1.0  0.06023558313259114  0.19294674118501945  0.1451225403089236  1.0000
  C   C12       1.0  0.05190071708776056  0.04334607337888374  0.1460171287782348  1.0000
  C   C13       1.0  0.052993060604127784  0.9567636891324858  0.2767888017184894  1.0000
  C   C14       1.0  0.06239987056110241  0.01842249120841298  0.40914512727533875  1.0000
  Cl  Cl1       1.0  0.05947934100847463  0.30132272087696227  0.9803482770511724  1.0000
  H   H5        1.0  0.11370949055558555  0.43211120227135846  0.6355728428792189  1.0000
  H   H6        1.0  0.0722924482412024  0.37338946268103906  0.27258236786033874  1.0000
  H   H7        1.0  0.045427747402114305  0.9936980537013043  0.04519582143826394  1.0000
  H   H8        1.0  0.04861239827771911  0.8405314846713642  0.27413479597843304  1.0000
  H   H9        1.0  0.03245720911000261  0.7172017516439906  0.6425313483704609  1.0000
  C   C15       1.0  0.06497035638595383  0.5995085752574338  0.9850631121306127  1.0000
  C   C16       1.0  0.14689916357300659  0.6145789394521111  0.057132650064836143  1.0000
  C   C17       1.0  0.22780400659712807  0.6161101078086271  0.9816877105303168  1.0000
  C   C18       1.0  0.2282018365832048  0.6024530793799117  0.8333035808698885  1.0000
  C   C19       1.0  0.1476614696751941  0.5897869326691653  0.7593034701805574  1.0000
  C   C20       1.0  0.06523647463744742  0.5904823592039776  0.8327387902591634  1.0000
  F   F1        1.0  0.3061717269957973  0.6291282940347442  0.05313042639103484  1.0000
  H   H10       1.0  0.8579912761889114  0.48236211904100257  0.09814848072208118  1.0000
  H   H11       1.0  0.29101813662437626  0.6030562983277011  0.7749885626118398  1.0000
  H   H12       1.0  0.9250707798743618  0.5175438093358908  0.5578509858248357  1.0000
  Zn  Zn1       1.0  0.96694330229297  0.594997133020218  0.40890305351579204  1.0000
  Zn  Zn2       1.0  0.16325499013965117  0.5949930943804069  0.4088981882522653  1.0000
  C   C21       1.0  0.0652208783421357  0.586444173764114  0.6725066262220991  1.0000
  C   C22       1.0  0.06497954623590885  0.6035478714374065  0.14529475820293514  1.0000
  C   C23       1.0  0.0634155018507565  0.8584102635087149  0.4033013362329998  1.0000
  C   C24       1.0  0.06678486682536411  0.33158004847646666  0.41450012414372606  1.0000
  O   O1        1.0  0.1394819330502115  0.6048956728397341  0.19906811238943023  1.0000
  O   O2        1.0  0.13971452707525445  0.5850922237693366  0.6187291633086935  1.0000
  O   O3        1.0  0.13825565891187863  0.8047082647590031  0.40134398785983616  1.0000
  O   O4        1.0  0.14094073412586683  0.3852796433186776  0.41645317962766537  1.0000
  O   O5        1.0  0.9892574913151969  0.804710584084976  0.40134806213446195  1.0000
  O   O6        1.0  0.9907163483889397  0.585096276314677  0.6187331616256972  1.0000
  O   O7        1.0  0.9904837541994671  0.6048996936151476  0.1990703754004861  1.0000
  O   O8        1.0  0.9919425553712858  0.38528365262850994  0.41645555084341357  1.0000
