data_image0
_chemical_formula_structural       NC6NC3H6C7NH5C6OCH7Zn2C4O8
_chemical_formula_sum              "N3 C27 H18 O9 Zn2"
_cell_length_a       14.934028789175542
_cell_length_b       9.275154477615127
_cell_length_c       9.273891588657152
_cell_angle_alpha    86.29931945807607
_cell_angle_beta     89.65557739525336
_cell_angle_gamma    89.3962875590186

_space_group_name_H-M_alt    "P 1"
_space_group_IT_number       1

loop_
  _space_group_symop_operation_xyz
  'x, y, z'

loop_
  _atom_site_type_symbol
  _atom_site_label
  _atom_site_symmetry_multiplicity
  _atom_site_fract_x
  _atom_site_fract_y
  _atom_site_fract_z
  _atom_site_occupancy
  N   N1        1.0  0.8390859858559834  0.5627520927701091  0.41575628218300836  1.0000
  C   C1        1.0  0.7616090592750221  0.5616480356906935  0.41507310846433576  1.0000
  C   C2        1.0  0.6652238985586434  0.5602695141477418  0.41422029191781906  1.0000
  C   C3        1.0  0.6165757135051289  0.6676287274257006  0.48053121241728025  1.0000
  C   C4        1.0  0.5230731193321793  0.6665218798085855  0.479847433776196  1.0000
  C   C5        1.0  0.4773057085035249  0.5581106090987837  0.4128867754578725  1.0000
  C   C6        1.0  0.3806407483634342  0.5604366940622315  0.41432477849380844  1.0000
  N   N2        1.0  0.3031453961312979  0.5622827387072382  0.41546634353693257  1.0000
  C   C7        1.0  0.5259605771752939  0.44926609958175284  0.3456579029830103  1.0000
  C   C8        1.0  0.4786166169531539  0.3314005243394347  0.2728589792919185  1.0000
  C   C9        1.0  0.6200849228948706  0.4515023781381986  0.3470392029982077  1.0000
  H   H1        1.0  0.6509221991361304  0.7522178341936372  0.532778656163307  1.0000
  H   H2        1.0  0.48634503425679726  0.7504595265011924  0.5316923567571241  1.0000
  H   H3        1.0  0.4358771855117681  0.3796612461015332  0.18444950183217768  1.0000
  H   H4        1.0  0.4359763392630764  0.2692903488571736  0.35272090813777385  1.0000
  H   H5        1.0  0.5267052444049759  0.2550572276549212  0.22569876333297373  1.0000
  H   H6        1.0  0.6582968557016411  0.36868135493348925  0.29588425734558643  1.0000
  C   C10       1.0  0.07371705810354134  0.13911043143887758  0.41394167296390494  1.0000
  C   C11       1.0  0.04958581924491123  0.22116740495788775  0.286865592882418  1.0000
  C   C12       1.0  0.018147445373839263  0.15407499234935051  0.16652628654959872  1.0000
  C   C13       1.0  0.010320676517136198  0.004010329210637925  0.17184589736307876  1.0000
  C   C14       1.0  0.03529203415801185  0.9207186969452443  0.29602451079039294  1.0000
  C   C15       1.0  0.0685229566091261  0.985913410448457  0.4172933948542208  1.0000
  C   C16       1.0  0.9928302976954412  0.23970115912412604  0.037919167583722505  1.0000
  N   N3        1.0  0.9724823431153802  0.3085289812758522  0.9345519860105186  1.0000
  H   H7        1.0  0.08983356392171576  0.21895707856295465  0.7677514352840085  1.0000
  H   H8        1.0  0.05325778504603562  0.3380845082314574  0.28258638233526345  1.0000
  H   H9        1.0  0.9856811845719309  0.9510741803644672  0.07935788065606064  1.0000
  H   H10       1.0  0.03059045293471563  0.8042547119034913  0.29590059433615834  1.0000
  H   H11       1.0  0.0831786091297459  0.6892669991420141  0.6543535895959578  1.0000
  C   C17       1.0  0.07261035342899341  0.558691809488482  0.9923261493221673  1.0000
  C   C18       1.0  0.14556757643945906  0.6195176592692535  0.06109507674527382  1.0000
  C   C19       1.0  0.2133795704096383  0.6911151740565331  0.9815263460335277  1.0000
  C   C20       1.0  0.2084761852774224  0.7022478820863938  0.8301327985568174  1.0000
  C   C21       1.0  0.137405554183333  0.6405470960988993  0.7600170423397885  1.0000
  C   C22       1.0  0.06962963692577845  0.5663319555551902  0.8389088513406421  1.0000
  O   O1        1.0  0.28390226758976467  0.7501682623789652  0.05692268265530953  1.0000
  C   C23       1.0  0.3571742657145112  0.8259749201134876  0.990100580864695  1.0000
  H   H12       1.0  0.8601654074941185  0.4703502879105827  0.10312595256782164  1.0000
  H   H13       1.0  0.25972065151332013  0.7572536221831645  0.7653963552279289  1.0000
  H   H14       1.0  0.13663745790495252  0.6479788710338306  0.642965729964275  1.0000
  H   H15       1.0  0.927995581446825  0.5011381980731198  0.5632963391722656  1.0000
  H   H16       1.0  0.3325394074532959  0.9235697948873262  0.9261062085813698  1.0000
  H   H17       1.0  0.39494941107847475  0.7543788348113019  0.9193813548719173  1.0000
  H   H18       1.0  0.4027997630956497  0.8603922737135966  0.07505189545134883  1.0000
  Zn  Zn1       1.0  0.9730035153537626  0.5626128586901047  0.4156809144837965  1.0000
  Zn  Zn2       1.0  0.16922792765074612  0.5624102683761063  0.4155534493687518  1.0000
  C   C24       1.0  0.07022630547280495  0.5591438785210965  0.6788638781155794  1.0000
  C   C25       1.0  0.07200726863921142  0.56588106685344  0.15237063302404708  1.0000
  C   C26       1.0  0.06952036355884106  0.8257977684259878  0.4109157565488204  1.0000
  C   C27       1.0  0.07271315395043798  0.29922544541727847  0.42031882462758796  1.0000
  O   O2        1.0  0.14627104829227414  0.5682106750581899  0.20603462653480348  1.0000
  O   O3        1.0  0.1448923225620864  0.5566594174940762  0.6251027222851008  1.0000
  O   O4        1.0  0.14432125642235416  0.7719858204538919  0.40873272492852863  1.0000
  O   O5        1.0  0.14684204779117047  0.35288428150640017  0.4224045158969971  1.0000
  O   O6        1.0  0.9953893282515932  0.7721388456304463  0.4088298479914735  1.0000
  O   O7        1.0  0.9959603840323186  0.5568141742725364  0.6251997753471854  1.0000
  O   O8        1.0  0.9973391162320343  0.5683653659518295  0.2061299463583992  1.0000
  O   O9        1.0  0.9979101154100227  0.35303896306264937  0.4224999437508934  1.0000
