data_image0
_chemical_formula_structural       NC6NC3H6C6ClH3C6H4Zn2C4O8
_chemical_formula_sum              "N2 C25 H13 Cl1 Zn2 O8"
_cell_length_a       14.934028789175542
_cell_length_b       9.276545438789551
_cell_length_c       10.681121600428288
_cell_angle_alpha    85.59384611870172
_cell_angle_beta     89.97499362812657
_cell_angle_gamma    89.37211250715544

_space_group_name_H-M_alt    "P 1"
_space_group_IT_number       1

loop_
  _space_group_symop_operation_xyz
  'x, y, z'

loop_
  _atom_site_type_symbol
  _atom_site_label
  _atom_site_symmetry_multiplicity
  _atom_site_fract_x
  _atom_site_fract_y
  _atom_site_fract_z
  _atom_site_occupancy
  N   N1        1.0  0.8330935878791369  0.5772206149468992  0.6190190623970029  1.0000
  C   C1        1.0  0.755614544588253  0.5761226041337805  0.6184287599733549  1.0000
  C   C2        1.0  0.6592267416308364  0.5747516302069597  0.6176918770404982  1.0000
  C   C3        1.0  0.6107839593411901  0.6815239957588672  0.6749878515085979  1.0000
  C   C4        1.0  0.5172792470606454  0.6804231995649763  0.6743970317171792  1.0000
  C   C5        1.0  0.4713044208892513  0.5726045267101414  0.6165396513897645  1.0000
  C   C6        1.0  0.37464391561245897  0.5749178852057697  0.6177821645346862  1.0000
  N   N2        1.0  0.29715210003201176  0.576753826830919  0.6187685406169701  1.0000
  C   C7        1.0  0.5197510431411624  0.4643549888368499  0.5584505175684327  1.0000
  C   C8        1.0  0.472181583660105  0.34713367953670576  0.49554858781191724  1.0000
  C   C9        1.0  0.6138796675573562  0.4665790429606694  0.5596440305859518  1.0000
  H   H1        1.0  0.6452922853720947  0.7656507156355705  0.7201322766654563  1.0000
  H   H2        1.0  0.4807117554876092  0.7639020216765261  0.7191936579822245  1.0000
  H   H3        1.0  0.4291179826525109  0.3961975961459801  0.4185966017942828  1.0000
  H   H4        1.0  0.4298390017225196  0.28429595334174756  0.5651150929167206  1.0000
  H   H5        1.0  0.5201241262761023  0.2712077491038134  0.4547997559073051  1.0000
  H   H6        1.0  0.6519331442385907  0.38421073802755745  0.5154435808532438  1.0000
  C   C10       1.0  0.06782963434486872  0.1535493455526478  0.618685896796138  1.0000
  C   C11       1.0  0.06816017531682302  0.2372004906589347  0.5030993699128701  1.0000
  C   C12       1.0  0.06034430199277249  0.17212897022757945  0.3900329985222725  1.0000
  C   C13       1.0  0.05201287750441305  0.022546208377304488  0.39081369060013155  1.0000
  C   C14       1.0  0.053063685742769734  0.9373552585895284  0.5042778828454888  1.0000
  C   C15       1.0  0.0624247497759198  0.0004140100764549167  0.6191125215706463  1.0000
  Cl  Cl1       1.0  0.059640117990942015  0.2787510982218014  0.2470660851202424  1.0000
  H   H7        1.0  0.11364038230894158  0.4164622683234973  0.8155461239774159  1.0000
  H   H8        1.0  0.07235577460519364  0.3539168360205571  0.5006177331405162  1.0000
  H   H9        1.0  0.045574445077739084  0.9718310927943195  0.30333900574491723  1.0000
  C   C16       1.0  0.06512720115593272  0.5769816382472008  0.2511539755974821  1.0000
  C   C17       1.0  0.0015473765723867934  0.49685064135536355  0.18972568638143716  1.0000
  C   C18       1.0  0.0015473200757427606  0.4968507338701294  0.058843546505302324  1.0000
  C   C19       1.0  0.06512713031170264  0.5769817090018017  0.9866444113474366  1.0000
  C   C20       1.0  0.12865447964979393  0.6570463010798291  0.04807211529416922  1.0000
  C   C21       1.0  0.128654468336101  0.657046278732044  0.1789644139521358  1.0000
  H   H10       1.0  0.9517105085762028  0.43404017882764917  0.24275797391456577  1.0000
  H   H11       1.0  0.951710489441886  0.43404024672107827  0.014253944733321863  1.0000
  H   H12       1.0  0.17849785523493156  0.7198650404693931  0.9950841637601505  1.0000
  H   H13       1.0  0.17849781044195034  0.7198649899666623  0.22350853124344794  1.0000
  Zn  Zn1       1.0  0.9670108884447691  0.5770820459982537  0.6189539914252675  1.0000
  Zn  Zn2       1.0  0.1632349049160604  0.576880584153222  0.6188438440553421  1.0000
  C   C22       1.0  0.06516183212641047  0.5712372825431893  0.8476180935061226  1.0000
  C   C23       1.0  0.06508609238284757  0.5827271647846217  0.3901798646011547  1.0000
  C   C24       1.0  0.06344176177006844  0.8403385331831039  0.6140415752060648  1.0000
  C   C25       1.0  0.06680610683839093  0.3136241817933496  0.623756448831291  1.0000
  O   O1        1.0  0.13953832767291752  0.5845726715250051  0.43679641944612335  1.0000
  O   O2        1.0  0.13963909196598345  0.5692377831278815  0.8009175783169449  1.0000
  O   O3        1.0  0.13824910956272263  0.7865404473001201  0.6123028885158148  1.0000
  O   O4        1.0  0.14092824305238527  0.3672700177365372  0.6254110153938943  1.0000
  O   O5        1.0  0.9893174833468078  0.7866926124852571  0.6123868201177167  1.0000
  O   O6        1.0  0.9907074546892302  0.5693916807346959  0.80100144401977  1.0000
  O   O7        1.0  0.9906066907764961  0.5847265188835122  0.4368787795010174  1.0000
  O   O8        1.0  0.9919966062181202  0.3674238547815931  0.6254934693331495  1.0000
