data_image0
_chemical_formula_structural       NC8NH4C6BrH5C6H6Zn2C4O8
_chemical_formula_sum              "N2 C24 H15 Br1 Zn2 O8"
_cell_length_a       13.859017124695912
_cell_length_b       9.276564384272257
_cell_length_c       10.681121600428288
_cell_angle_alpha    85.5120417802204
_cell_angle_beta     89.99985505477505
_cell_angle_gamma    90.58596084768166

_space_group_name_H-M_alt    "P 1"
_space_group_IT_number       1

loop_
  _space_group_symop_operation_xyz
  'x, y, z'

loop_
  _atom_site_type_symbol
  _atom_site_label
  _atom_site_symmetry_multiplicity
  _atom_site_fract_x
  _atom_site_fract_y
  _atom_site_fract_z
  _atom_site_occupancy
  N   N1        1.0  0.9193955783547426  0.5782300619284926  0.6175057243029298  1.0000
  C   C1        1.0  0.8468846924726278  0.555371745169704  0.5687265997296092  1.0000
  C   C2        1.0  0.7566854692369712  0.5269393441241588  0.50805163758877  1.0000
  C   C3        1.0  0.669259905624795  0.5546580590556465  0.567202091335264  1.0000
  C   C4        1.0  0.581455157768797  0.5269405699053216  0.5080511333805089  1.0000
  C   C5        1.0  0.5812583311649304  0.47149686629253224  0.3897315642724235  1.0000
  C   C6        1.0  0.6685020633496702  0.4438846867725245  0.33080879657294204  1.0000
  C   C7        1.0  0.7561236739558881  0.47149451691599653  0.3897325897745201  1.0000
  C   C8        1.0  0.49164486009742236  0.5553726716910827  0.5687261663611549  1.0000
  N   N2        1.0  0.4194467061516197  0.5782303845273478  0.6175055363922453  1.0000
  H   H1        1.0  0.6695534629140918  0.5975736517583234  0.6587842719043091  1.0000
  H   H2        1.0  0.513813665104364  0.44968121716985854  0.34317368054281006  1.0000
  H   H3        1.0  0.6682091717327775  0.4010567562722094  0.23941208483627352  1.0000
  H   H4        1.0  0.8232698512600967  0.44967676713801885  0.3431755757390791  1.0000
  C   C9        1.0  0.1665186806190715  0.15474927088774068  0.6178258751015762  1.0000
  C   C10       1.0  0.15415356015023574  0.23824854776925616  0.5033690380375149  1.0000
  C   C11       1.0  0.15076823459018707  0.17325967341236148  0.3899812819125479  1.0000
  C   C12       1.0  0.15972659151731297  0.02385251916714769  0.3888973632479536  1.0000
  C   C13       1.0  0.17039188139380412  0.938659911979109  0.5016234201928909  1.0000
  C   C14       1.0  0.17233276315720447  0.001700077509732452  0.6171961988672423  1.0000
  Br  Br1       1.0  0.1558047897366135  0.9354947381195106  0.23330955041653414  1.0000
  H   H5        1.0  0.13822428013161114  0.4173016566490419  0.8214203999150727  1.0000
  H   H6        1.0  0.1493918907066265  0.3549049369511669  0.5012251345903138  1.0000
  H   H7        1.0  0.14209753608633013  0.239479897837104  0.3027511512856198  1.0000
  H   H8        1.0  0.17485630378576134  0.8224199326592931  0.49892347762766964  1.0000
  H   H9        1.0  0.22556060743377437  0.7037674584651039  0.8122385347022733  1.0000
  C   C15       1.0  0.16942574089093676  0.5782246688949533  0.24976583007560604  1.0000
  C   C16       1.0  0.09981253724251693  0.49802098815605333  0.18840298584511928  1.0000
  C   C17       1.0  0.09981247763459766  0.49802108062395156  0.057520845823503926  1.0000
  C   C18       1.0  0.16942566552338367  0.5782247395858856  0.9852562656994222  1.0000
  C   C19       1.0  0.23898141061245726  0.6583619554926481  0.046618579010015315  1.0000
  C   C20       1.0  0.23898139811399277  0.658361933131054  0.17751087768968898  1.0000
  H   H10       1.0  0.23982314837146124  0.6593326276155198  0.5429632566127418  1.0000
  H   H11       1.0  0.045246421851013796  0.4351535525972716  0.2414865722528481  1.0000
  H   H12       1.0  0.04524640216541065  0.43515362047878425  0.01298254297685819  1.0000
  H   H13       1.0  0.293554652161256  0.7212376753608325  0.993579321809357  1.0000
  H   H14       1.0  0.29355460319944493  0.7212376248075387  0.22200368933135972  1.0000
  H   H15       1.0  0.2398234460670352  0.6593321251863411  0.6810342312727227  1.0000
  Zn  Zn1       1.0  0.06369950871592821  0.5782263048176775  0.6175129085406061  1.0000
  Zn  Zn2       1.0  0.2751426873994496  0.5782223778919307  0.6175086320662899  1.0000
  C   C21       1.0  0.16938411497265934  0.5724797263723185  0.8462371115103566  1.0000
  C   C22       1.0  0.16946040258642436  0.5839707758559125  0.388784550610106  1.0000
  C   C23       1.0  0.17122880809328067  0.8416083688315535  0.6123249566049769  1.0000
  C   C24       1.0  0.16761562542123576  0.3148404008015546  0.6226967735701903  1.0000
  O   O1        1.0  0.2497135765445877  0.5858914402237492  0.43543888495055216  1.0000
  O   O2        1.0  0.24961141370501672  0.5705549936519101  0.7995791717425317  1.0000
  O   O3        1.0  0.25109994503423394  0.787879776054123  0.610693450596288  1.0000
  O   O4        1.0  0.24822497313495928  0.36856666813895167  0.6243245121944441  1.0000
  O   O5        1.0  0.09061715082525001  0.7878820145735672  0.6106970284073225  1.0000
  O   O6        1.0  0.08912863138543159  0.5705589647693863  0.7995826814937326  1.0000
  O   O7        1.0  0.08923079394428803  0.5858953610878632  0.4354408891165269  1.0000
  O   O8        1.0  0.08774219045990228  0.3685705786885607  0.6243266102576412  1.0000
