data_image0
_chemical_formula_structural       NC9NC3NH7C7F3H5C8NH7Zn2C4O8
_chemical_formula_sum              "N4 C31 H19 F3 Zn2 O8"
_cell_length_a       16.053384444249904
_cell_length_b       9.272718291674593
_cell_length_c       9.274266800404106
_cell_angle_alpha    86.41389872873008
_cell_angle_beta     89.35588104550887
_cell_angle_gamma    88.75080299671951

_space_group_name_H-M_alt    "P 1"
_space_group_IT_number       1

loop_
  _space_group_symop_operation_xyz
  'x, y, z'

loop_
  _atom_site_type_symbol
  _atom_site_label
  _atom_site_symmetry_multiplicity
  _atom_site_fract_x
  _atom_site_fract_y
  _atom_site_fract_z
  _atom_site_occupancy
  N   N1        1.0  0.7849828767527459  0.5468162339365199  0.4183431261763322  1.0000
  C   C1        1.0  0.7347102278020278  0.5230790629599942  0.33508532783621003  1.0000
  C   C2        1.0  0.672234861679514  0.4935855383458081  0.23165879944536405  1.0000
  C   C3        1.0  0.6865782181362978  0.4790771635527109  0.08643974604275773  1.0000
  C   C4        1.0  0.610342659752028  0.4505165496615911  0.028224165470421392  1.0000
  C   C5        1.0  0.5527370315527265  0.44918912000649525  0.14106626891734497  1.0000
  C   C6        1.0  0.4622513119377825  0.42265320208013035  0.12949216803237906  1.0000
  C   C7        1.0  0.4056704271158314  0.470867626466649  0.23409005618291046  1.0000
  C   C8        1.0  0.3202804959441632  0.44569997291288205  0.223006134038922  1.0000
  C   C9        1.0  0.26289904380801704  0.495871705566304  0.33025154864956074  1.0000
  N   N2        1.0  0.2167811263963332  0.5362026909768853  0.4164600727498895  1.0000
  C   C10       1.0  0.2907458871619024  0.37219366958590694  0.10733860289226538  1.0000
  C   C11       1.0  0.3463165641348234  0.324113835366429  0.0029766770166712595  1.0000
  C   C12       1.0  0.4315033518738651  0.3490941458243393  0.013618989818933828  1.0000
  N   N3        1.0  0.5912452452382126  0.4756329887272  0.26508833009809973  1.0000
  H   H1        1.0  0.7455350284396953  0.488231519899214  0.02921688779731446  1.0000
  H   H2        1.0  0.5986654914359119  0.43437363882081037  0.9158009368632629  1.0000
  H   H3        1.0  0.4273285427420533  0.5297849065212579  0.3231087706427771  1.0000
  H   H4        1.0  0.2248529580566288  0.35217369178419666  0.0978275000758031  1.0000
  H   H5        1.0  0.3233614272680573  0.26701750546637393  0.9137121536498709  1.0000
  H   H6        1.0  0.4731670506915951  0.3091237501108621  0.9320143824836508  1.0000
  H   H7        1.0  0.5645958359396348  0.47904100566503255  0.3680736852405624  1.0000
  C   C13       1.0  0.0027149795735919033  0.1180578918617725  0.41420918576676624  1.0000
  C   C14       1.0  0.9523814745037339  0.199861420550125  0.31480540398346357  1.0000
  C   C15       1.0  0.8961007443545714  0.1330520242581137  0.22680189818512855  1.0000
  C   C16       1.0  0.8923750839096226  0.9819180606157715  0.23524599417801254  1.0000
  C   C17       1.0  0.942785092931803  0.8991302186290627  0.33153006602476554  1.0000
  C   C18       1.0  0.9990569540747476  0.9649498704780137  0.42060638650787485  1.0000
  C   C19       1.0  0.8442935484614588  0.2224204042679361  0.11823356359449178  1.0000
  F   F1        1.0  0.822645627839734  0.3547641995949584  0.17071867233993876  1.0000
  F   F2        1.0  0.7717012059541997  0.15257866184648594  0.08843229731455815  1.0000
  F   F3        1.0  0.8898153836546113  0.24513771721007924  0.9917609604221371  1.0000
  H   H8        1.0  0.10022535651778974  0.19668478152501875  0.7248901419615057  1.0000
  H   H9        1.0  0.9557377742360166  0.31669749296716865  0.3080813568008156  1.0000
  H   H10       1.0  0.8510454494424435  0.9273220379270153  0.16610502930889304  1.0000
  H   H11       1.0  0.9393756896555365  0.7824594606698955  0.3334844675260604  1.0000
  H   H12       1.0  0.17712796319807922  0.8459589229532275  0.5933335335064975  1.0000
  C   C20       1.0  0.002815887061070388  0.5383039550523216  0.9940648646185477  1.0000
  C   C21       1.0  0.9548440233199702  0.4362669780292044  0.07464575158166964  1.0000
  C   C22       1.0  0.9017819685001787  0.34556862424691137  0.006286834481223693  1.0000
  C   C23       1.0  0.8949159716688075  0.3555373087875935  0.8556927632040012  1.0000
  C   C24       1.0  0.944046536382614  0.45409874324153066  0.7737745961567946  1.0000
  C   C25       1.0  0.9989560370554554  0.5447038109520119  0.8407506244409446  1.0000
  C   C26       1.0  0.8386010883614463  0.2562167018072441  0.7820976784070415  1.0000
  C   C27       1.0  0.8842884922354255  0.12327722524731288  0.7496900250412271  1.0000
  N   N4        1.0  0.920352517890287  0.01835713815689233  0.7241100656598518  1.0000
  H   H13       1.0  0.09322785169709324  0.8534109887282353  0.0754971425395492  1.0000
  H   H14       1.0  0.9570034845282939  0.4287465472017342  0.19159408589131544  1.0000
  H   H15       1.0  0.8653505019654228  0.26829858889173996  0.07110065924352171  1.0000
  H   H16       1.0  0.9407876051220657  0.4574686708719669  0.656922603446422  1.0000
  H   H17       1.0  0.06286694512000168  0.7539802466209844  0.5457207937128263  1.0000
  H   H18       1.0  0.814607685861003  0.30960064502321805  0.6798311151827954  1.0000
  H   H19       1.0  0.7840838864985512  0.22793185093688398  0.8522737524306083  1.0000
  Zn  Zn1       1.0  0.9095905006681793  0.5437496118588097  0.4178080060944225  1.0000
  Zn  Zn2       1.0  0.09217347605096271  0.5392576542067988  0.4170068865585217  1.0000
  C   C28       1.0  0.9997086037369928  0.5377495743412644  0.680665531083309  1.0000
  C   C29       1.0  0.0020573582787697425  0.5452594631768983  0.15414950806045558  1.0000
  C   C30       1.0  0.9997703109291838  0.804825946607733  0.41365240231708467  1.0000
  C   C31       1.0  0.0019955959165356466  0.2781813605480996  0.4211627008725969  1.0000
  O   O1        1.0  0.07109210388143562  0.5458828297893641  0.20757130858230055  1.0000
  O   O2        1.0  0.06925011835793948  0.5337158248397595  0.6266352761611862  1.0000
  O   O3        1.0  0.06929900680970236  0.7493834073970433  0.41102030094438735  1.0000
  O   O4        1.0  0.07104315357467916  0.33021525826320874  0.4231861760585298  1.0000
  O   O5        1.0  0.9307207608378822  0.7527920093367972  0.4116287168602264  1.0000
  O   O6        1.0  0.9306718652495817  0.5371261586762408  0.6272436282969198  1.0000
  O   O7        1.0  0.9325138589469877  0.5492931002735411  0.20817792708764227  1.0000
  O   O8        1.0  0.9324649081886441  0.333625519250655  0.42379290257025315  1.0000
