data_image0
_chemical_formula_structural       NC6NC2H4C9H8C7ONH5Zn2C4O8
_chemical_formula_sum              "N3 C28 H17 O9 Zn2"
_cell_length_a       14.927258858638513
_cell_length_b       9.275152443626249
_cell_length_c       9.273042158839658
_cell_angle_alpha    85.96394158152518
_cell_angle_beta     90.09323234568471
_cell_angle_gamma    90.5735452640029

_space_group_name_H-M_alt    "P 1"
_space_group_IT_number       1

loop_
  _space_group_symop_operation_xyz
  'x, y, z'

loop_
  _atom_site_type_symbol
  _atom_site_label
  _atom_site_symmetry_multiplicity
  _atom_site_fract_x
  _atom_site_fract_y
  _atom_site_fract_z
  _atom_site_occupancy
  N   N1        1.0  0.8516712762919137  0.5619896395936779  0.4047340302393132  1.0000
  C   C1        1.0  0.7741447849583585  0.5619896111865508  0.4047340409245075  1.0000
  C   C2        1.0  0.6777122780761308  0.5619897257958624  0.40473399067613225  1.0000
  C   C3        1.0  0.6303762489909477  0.5369572679766916  0.2781516526027851  1.0000
  C   C4        1.0  0.5366649376631946  0.5369572922150818  0.2781515190792936  1.0000
  C   C5        1.0  0.48989621300041875  0.5619895483861728  0.4047340099144039  1.0000
  C   C6        1.0  0.39346363912666654  0.5619896629983869  0.40473395966009496  1.0000
  N   N2        1.0  0.31593714779311155  0.5619896345912603  0.4047339703452897  1.0000
  C   C7        1.0  0.5372321750940773  0.5870220062082467  0.5313163479818175  1.0000
  C   C8        1.0  0.6309434864218312  0.5870219819698568  0.5313164815053089  1.0000
  H   H1        1.0  0.6658517464906606  0.5174806030916416  0.17966332858948775  1.0000
  H   H2        1.0  0.5007480922026016  0.5174808006394034  0.1796633229739777  1.0000
  H   H3        1.0  0.5017567446343627  0.6064986619108315  0.6298047800971605  1.0000
  H   H4        1.0  0.666860332603846  0.6064985720637823  0.6298047872849584  1.0000
  C   C9        1.0  0.08116740956174451  0.1383728340344501  0.4062054991603179  1.0000
  C   C10       1.0  0.04871873824566686  0.21982242206017255  0.2837573677645464  1.0000
  C   C11       1.0  0.024594820995091696  0.15306711531801181  0.15901670114262867  1.0000
  C   C12       1.0  0.03254023338734437  0.0036750111410175394  0.15425433752456796  1.0000
  C   C13       1.0  0.06323598965882793  0.9205263757820146  0.27566762369474435  1.0000
  C   C14       1.0  0.08644955411484201  0.9855954837558109  0.4032749895303618  1.0000
  C   C15       1.0  0.00813012423841419  0.9351648130021611  0.025077532053625395  1.0000
  C   C16       1.0  0.987692351194088  0.8777700948658147  0.916912210958476  1.0000
  C   C17       1.0  0.9628951508349675  0.808119754848473  0.7856725638680837  1.0000
  H   H5        1.0  0.21020203015689798  0.22305636381815863  0.6940560784044583  1.0000
  H   H6        1.0  0.04399924629322641  0.3363351326429904  0.2833039938866637  1.0000
  H   H7        1.0  0.0005426578819247549  0.21832359630043552  0.06566880742593394  1.0000
  H   H8        1.0  0.06700343894066263  0.804173992564943  0.2716468434921133  1.0000
  H   H9        1.0  0.17045623951791478  0.6923699266892016  0.6001551217434842  1.0000
  H   H10       1.0  0.9792865557262801  0.6915397605243296  0.7991376948183846  1.0000
  H   H11       1.0  0.8899604982295771  0.8204944789025691  0.7659408584226797  1.0000
  H   H12       1.0  0.0006265427407372527  0.8594855559540072  0.6923772951721315  1.0000
  C   C18       1.0  0.08335230680164513  0.5575258320501757  0.9814907783325925  1.0000
  C   C19       1.0  0.0011288558715254432  0.5667118465092791  0.054139820058150434  1.0000
  C   C20       1.0  0.9206101259184757  0.5898512097431055  0.9778036290454429  1.0000
  C   C21       1.0  0.9228006393615122  0.6020621597991442  0.8262626917507466  1.0000
  C   C22       1.0  0.003544332854618747  0.5907581847488614  0.7526115453734419  1.0000
  C   C23       1.0  0.0842646766439521  0.5664424139251596  0.8279897752011367  1.0000
  C   C24       1.0  0.8350672876060947  0.5998097738706069  0.05762921186307434  1.0000
  O   O1        1.0  0.8287343824896667  0.5439859119039461  0.18519292456573222  1.0000
  N   N3        1.0  0.7593226607302844  0.6729941872527314  0.9938396179693273  1.0000
  H   H13       1.0  0.30104418045477854  0.6126270166991656  0.0812602225873269  1.0000
  H   H14       1.0  0.8619700128152248  0.6163251198619284  0.7635902303818596  1.0000
  H   H15       1.0  0.2309541445361972  0.5968626797826111  0.5449627560256869  1.0000
  H   H16       1.0  0.7640252793993335  0.7352874080406436  0.895958321977278  1.0000
  H   H17       1.0  0.6987723503834513  0.6728318223533651  0.050082646841489435  1.0000
  Zn  Zn1       1.0  0.9856483709685282  0.5619858604472807  0.4047423545179012  1.0000
  Zn  Zn2       1.0  0.1819600030731966  0.5619817222896122  0.4047375101162609  1.0000
  C   C25       1.0  0.08405436814375333  0.5590102021947676  0.6680031932896195  1.0000
  C   C26       1.0  0.08355616111532932  0.5649592021324388  0.14147680646026917  1.0000
  C   C27       1.0  0.08544030924113802  0.8253918415813248  0.3980854570438317  1.0000
  C   C28       1.0  0.08217014230772418  0.29857583040426805  0.41139462554471073  1.0000
  O   O2        1.0  0.158123778545192  0.5674460452368506  0.19516776233347818  1.0000
  O   O3        1.0  0.15848272990729978  0.5565191256981947  0.6143081494913769  1.0000
  O   O4        1.0  0.15960089220089627  0.7716256841659672  0.3963476625967248  1.0000
  O   O5        1.0  0.15700554921159737  0.352339495951544  0.41312814112608365  1.0000
  O   O6        1.0  0.010602757838603432  0.7716280867882516  0.396351723502145  1.0000
  O   O7        1.0  0.009484606263703956  0.5565232606649964  0.6143121275522101  1.0000
  O   O8        1.0  0.00912565278010736  0.5674501116810301  0.19517000770006687  1.0000
  O   O9        1.0  0.008007423494987176  0.35234355321616073  0.41313049458878504  1.0000
