data_image0
_chemical_formula_structural       NC9NC4H8C6NCOCH7C8NH11Zn2C4O8
_chemical_formula_sum              "N4 C33 H26 O9 Zn2"
_cell_length_a       16.32274767691083
_cell_length_b       10.300268703208216
_cell_length_c       9.275652972338536
_cell_angle_alpha    85.93999847967777
_cell_angle_beta     89.90519038886141
_cell_angle_gamma    89.50441699892957

_space_group_name_H-M_alt    "P 1"
_space_group_IT_number       1

loop_
  _space_group_symop_operation_xyz
  'x, y, z'

loop_
  _atom_site_type_symbol
  _atom_site_label
  _atom_site_symmetry_multiplicity
  _atom_site_fract_x
  _atom_site_fract_y
  _atom_site_fract_z
  _atom_site_occupancy
  N   N1        1.0  0.7642724919838424  0.40242431445818017  0.3984152566419567  1.0000
  C   C1        1.0  0.7116964729146975  0.35462945058313355  0.33816110222539875  1.0000
  C   C2        1.0  0.6463441669900125  0.29526785747204887  0.26332496062955735  1.0000
  C   C3        1.0  0.6574883724519668  0.21407176288852803  0.1609576727538815  1.0000
  C   C4        1.0  0.5779234030100409  0.17444766151755187  0.11100583920161954  1.0000
  C   C5        1.0  0.5192821715477084  0.2324366697918443  0.18411751479921645  1.0000
  C   C6        1.0  0.4292675836921616  0.2171107193879909  0.16479867190863318  1.0000
  C   C7        1.0  0.37401173380048675  0.2847006048899994  0.25000684635491277  1.0000
  C   C8        1.0  0.2892373225533097  0.27160230939526575  0.23349573896424977  1.0000
  C   C9        1.0  0.2335799979920185  0.3412700272253242  0.32132251755108143  1.0000
  N   N2        1.0  0.18885039097786271  0.3972714057582214  0.39192037236903876  1.0000
  C   C10       1.0  0.258665175881892  0.190804818919391  0.13163934540366418  1.0000
  C   C11       1.0  0.3125995594675143  0.12330446340908852  0.046544414169628956  1.0000
  C   C12       1.0  0.39721339897314456  0.13604995033247796  0.0626106148414487  1.0000
  C   C13       1.0  0.5574616369490103  0.3169910065204724  0.29071579366498446  1.0000
  H   H1        1.0  0.716237037609983  0.18249841567418934  0.12114935599378063  1.0000
  H   H2        1.0  0.5692942794169351  0.10808619339389391  0.027340977391481894  1.0000
  H   H3        1.0  0.3964414362179109  0.3477766679479397  0.32952305112863867  1.0000
  H   H4        1.0  0.19321914988463204  0.18001453842395687  0.11803786691732586  1.0000
  H   H5        1.0  0.2887766870757872  0.06080007290514634  0.9677491659526204  1.0000
  H   H6        1.0  0.43672305931295513  0.08205401350681044  0.9945405850497164  1.0000
  H   H7        1.0  0.5411788834549516  0.2829177431859382  0.40336239532709883  1.0000
  H   H8        1.0  0.540553143287966  0.4209030762019119  0.266117933472934  1.0000
  C   C14       1.0  0.9766486348867327  0.01849918809518991  0.39517500107509695  1.0000
  C   C15       1.0  0.9898148476483755  0.02682971117289235  0.24514406070379047  1.0000
  C   C16       1.0  0.9975682018193266  0.9137153454125252  0.1698341518575428  1.0000
  C   C17       1.0  0.9896296681776101  0.791672654750742  0.2451828513848848  1.0000
  C   C18       1.0  0.976482140330482  0.781186501731948  0.39517296287447845  1.0000
  C   C19       1.0  0.9703698249210966  0.8951937093996305  0.469460027447476  1.0000
  N   N3        1.0  0.009770936124080306  0.9206674154921138  0.015886226181810677  1.0000
  C   C20       1.0  0.0575325969978091  0.018732386280898128  0.9377073131819199  1.0000
  O   O1        1.0  0.10407823877555944  0.0915608345233232  0.0035544012033639247  1.0000
  C   C21       1.0  0.05687096192112495  0.02866107293614695  0.7762540113578806  1.0000
  H   H9        1.0  0.9924154232940151  0.12129682583515566  0.18646758714291423  1.0000
  H   H10       1.0  0.9944611278435886  0.7048990442897314  0.1861085928192121  1.0000
  H   H11       1.0  0.9602374730900811  0.8879590774296517  0.5851803325623044  1.0000
  H   H12       1.0  0.9869555927705974  0.8451740448964887  0.9583216303618375  1.0000
  H   H13       1.0  0.9939929104527245  0.012144831863414977  0.736351692358538  1.0000
  H   H14       1.0  0.07700087500965401  0.12682542917304263  0.733917631982266  1.0000
  H   H15       1.0  0.09898611298026781  0.9541872121359295  0.7359326537614477  1.0000
  C   C22       1.0  0.9747421096309564  0.3973339621394368  0.9719311594586743  1.0000
  C   C23       1.0  0.9215843766425194  0.48292491427841533  0.03889094463356301  1.0000
  C   C24       1.0  0.8748937351210102  0.576015182137173  0.9569045825198591  1.0000
  C   C25       1.0  0.8802544595856696  0.5822768481216143  0.8060371640157302  1.0000
  C   C26       1.0  0.9316083428998123  0.4967655948956975  0.7376968950455732  1.0000
  C   C27       1.0  0.9783887046084107  0.40235171370145295  0.8184168102121392  1.0000
  C   C28       1.0  0.8173736763595978  0.6655563559827526  0.03032767390226243  1.0000
  C   C29       1.0  0.7331511190480794  0.6031286038440515  0.0524037848313894  1.0000
  N   N4        1.0  0.6775665477827614  0.6915626647076618  0.12146144070344111  1.0000
  H   H16       1.0  0.03483401778083661  0.20366413842699993  0.26762031530508223  1.0000
  H   H17       1.0  0.9176881959005243  0.4793592031277159  0.1557780977741654  1.0000
  H   H18       1.0  0.843911738849336  0.6526656230117924  0.7410094882543058  1.0000
  H   H19       1.0  0.933086248060318  0.5023249338228932  0.620654380152171  1.0000
  H   H20       1.0  0.09076612218185676  0.2820475377141636  0.546218321813301  1.0000
  H   H21       1.0  0.8430254775604302  0.6880631714278145  0.1366494375115963  1.0000
  H   H22       1.0  0.8107944010195841  0.7593919643827034  0.9641182594963714  1.0000
  H   H23       1.0  0.7075422086130886  0.5816646679253648  0.9456642045019366  1.0000
  H   H24       1.0  0.7389546466100484  0.5100495352488217  0.1205082371370847  1.0000
  H   H25       1.0  0.6197109868117059  0.6486559266938876  0.12674955999951343  1.0000
  H   H26       1.0  0.69674937574106  0.697829662484271  0.22828788588982651  1.0000
  Zn  Zn1       1.0  0.8867965450707376  0.4009338602634607  0.39654929682716644  1.0000
  Zn  Zn2       1.0  0.06632639725434664  0.398751273539337  0.3937981395631389  1.0000
  C   C30       1.0  0.9776987001834326  0.3962298627594818  0.6584129457604504  1.0000
  C   C31       1.0  0.9754262028537973  0.4034568865805408  0.1319346020450931  1.0000
  C   C32       1.0  0.9764846638679817  0.6369883519345061  0.389430024633971  1.0000
  C   C33       1.0  0.9766401785798476  0.16269683838615934  0.4009176009554496  1.0000
  O   O2        1.0  0.04378643530130355  0.40467785022926495  0.18458916919769996  1.0000
  O   O3        1.0  0.04559746993180047  0.3933513841589776  0.6036698990105456  1.0000
  O   O4        1.0  0.04461620827585877  0.5877669290236962  0.38646430117303326  1.0000
  O   O5        1.0  0.04476763522830174  0.21026231475845503  0.4017946599076647  1.0000
  O   O6        1.0  0.9083552458320213  0.5894228197905209  0.3885527774138944  1.0000
  O   O7        1.0  0.9093365068126033  0.39500883469133846  0.6057582983987837  1.0000
  O   O8        1.0  0.9075254647815783  0.4063352452355829  0.186675835744345  1.0000
  O   O9        1.0  0.9085066651727589  0.2119197011170426  0.4038814345131114  1.0000
