data_image0
_chemical_formula_structural       NC9NC5H8C8H6C8H5Zn2C4O8
_chemical_formula_sum              "N2 C34 H19 Zn2 O8"
_cell_length_a       17.807436237873137
_cell_length_b       9.275140704573507
_cell_length_c       9.275144076552241
_cell_angle_alpha    86.09146216302537
_cell_angle_beta     89.86257050345318
_cell_angle_gamma    88.98377242316299

_space_group_name_H-M_alt    "P 1"
_space_group_IT_number       1

loop_
  _space_group_symop_operation_xyz
  'x, y, z'

loop_
  _atom_site_type_symbol
  _atom_site_label
  _atom_site_symmetry_multiplicity
  _atom_site_fract_x
  _atom_site_fract_y
  _atom_site_fract_z
  _atom_site_occupancy
  N   N1        1.0  0.7089760678756468  0.5296369170241582  0.4021794757920274  1.0000
  C   C1        1.0  0.6481260574400257  0.4904931655659584  0.3898543878777016  1.0000
  C   C2        1.0  0.572435332416809  0.4418026493597525  0.37452331689554014  1.0000
  C   C3        1.0  0.553424555168335  0.36174481848871487  0.25780253182851376  1.0000
  C   C4        1.0  0.4799317194145156  0.3143456967677627  0.24282506031765136  1.0000
  C   C5        1.0  0.4243985279989388  0.3465850980838832  0.3445313901357481  1.0000
  C   C6        1.0  0.346295661508486  0.2963402130909276  0.3287056014597751  1.0000
  C   C7        1.0  0.2847306598272817  0.3872852003998033  0.357703449678481  1.0000
  C   C8        1.0  0.2110943664208923  0.3396608049776842  0.3427406420786365  1.0000
  C   C9        1.0  0.1484971072933431  0.4335959666570943  0.37214926403733734  1.0000
  N   N2        1.0  0.0981818608342199  0.5091133460190289  0.395792974830125  1.0000
  C   C10       1.0  0.1984378651341529  0.20080486996580518  0.2987511908495195  1.0000
  C   C11       1.0  0.2591453747155724  0.10984444356465883  0.2697439958037404  1.0000
  C   C12       1.0  0.3326589238352628  0.15702937537443473  0.28448100461897985  1.0000
  C   C13       1.0  0.4441046983867307  0.42719332547308436  0.46149675457145234  1.0000
  C   C14       1.0  0.5176485360590443  0.4743799410587719  0.47630098869264015  1.0000
  H   H1        1.0  0.595349135758474  0.33624914275245277  0.17815423064270308  1.0000
  H   H2        1.0  0.46630941506081375  0.2541368431750781  0.15065792778487475  1.0000
  H   H3        1.0  0.2939473665863822  0.49568912724357866  0.39000241666741475  1.0000
  H   H4        1.0  0.1417192819169256  0.1629449397261138  0.28690522954652575  1.0000
  H   H5        1.0  0.24922962073827457  0.0023418590892361193  0.23611484814825598  1.0000
  H   H6        1.0  0.3788166074913779  0.08390862495230511  0.26317164640957946  1.0000
  H   H7        1.0  0.4028998252972667  0.45210033383039616  0.5425803793246653  1.0000
  H   H8        1.0  0.531801630564324  0.5359358723383789  0.5673151940980232  1.0000
  C   C15       1.0  0.9012969443177821  0.09604766993356771  0.3980156432927058  1.0000
  C   C16       1.0  0.9114664304066867  0.1780308360845424  0.26636158686230593  1.0000
  C   C17       1.0  0.9282070011559093  0.1109472563585745  0.13976592396792786  1.0000
  C   C18       1.0  0.93518107123346  0.9606688092991233  0.14239173968486973  1.0000
  C   C19       1.0  0.9240397951373972  0.8771394750628243  0.2716993705347576  1.0000
  C   C20       1.0  0.9058681315794858  0.9426912434343856  0.39996921255491236  1.0000
  C   C21       1.0  0.9529292581458372  0.8917529337398573  0.011750502071771859  1.0000
  C   C22       1.0  0.9677895747742066  0.83403781872393  0.9023757483392538  1.0000
  H   H9        1.0  0.9150737271660522  0.17431126862148896  0.7519674586368987  1.0000
  H   H10       1.0  0.908218516200676  0.294996004132124  0.2619998405651056  1.0000
  H   H11       1.0  0.9364478850727849  0.1765545396228323  0.03998290688261295  1.0000
  H   H12       1.0  0.9278248489145693  0.7603314014402873  0.27145919975776267  1.0000
  H   H13       1.0  0.9122622191169972  0.6455019428490602  0.6384950188252996  1.0000
  H   H14       1.0  0.9808337412475491  0.7833743775110256  0.8063676847404624  1.0000
  C   C23       1.0  0.901797648202612  0.5165128239800485  0.9757291295887097  1.0000
  C   C24       1.0  0.8533392610635455  0.6131090719262995  0.04272326240036196  1.0000
  C   C25       1.0  0.8109455798943151  0.716530057510292  0.9607261026433481  1.0000
  C   C26       1.0  0.8162447815273229  0.7254652867782678  0.8102307410995326  1.0000
  C   C27       1.0  0.8631434785349994  0.6288455382591622  0.7415061151242568  1.0000
  C   C28       1.0  0.9053674469199322  0.5222261253583269  0.8222557343866885  1.0000
  C   C29       1.0  0.7727817222977778  0.8329065638344471  0.7258907089579503  1.0000
  C   C30       1.0  0.7363945737918888  0.922860076870673  0.6552621504509628  1.0000
  H   H15       1.0  0.05690079095476807  0.31904248630167165  0.09133467701437392  1.0000
  H   H16       1.0  0.8495696112685679  0.6108838378050274  0.15944943572026893  1.0000
  H   H17       1.0  0.7745400095104263  0.790549180604815  0.014934568792217325  1.0000
  H   H18       1.0  0.8653288954750854  0.6347221685141959  0.6243999960776692  1.0000
  H   H19       1.0  0.7044542080355357  0.0018200824045888644  0.5932634608129401  1.0000
  Zn  Zn1       1.0  0.8212924656067457  0.5237104674862445  0.40034479656737676  1.0000
  Zn  Zn2       1.0  0.9858654314296602  0.5150281246592108  0.397639476406481  1.0000
  C   C31       1.0  0.904659994254095  0.515403356643796  0.6622308196351199  1.0000
  C   C32       1.0  0.9024997103311827  0.5233369605469111  0.13575356946260309  1.0000
  C   C33       1.0  0.9049760081384787  0.7826190232715797  0.39385630238345837  1.0000
  C   C34       1.0  0.9021836312623459  0.25611956543253345  0.40412816048575806  1.0000
  O   O1        1.0  0.9651898776894162  0.522326010174252  0.18843256391207674  1.0000
  O   O2        1.0  0.9668768923748411  0.5098235193940992  0.6074981323570725  1.0000
  O   O3        1.0  0.9671312419854805  0.7256036041312384  0.39078382818071145  1.0000
  O   O4        1.0  0.9649354715211128  0.3065459379827633  0.4051467609638475  1.0000
  O   O5        1.0  0.8422223693545929  0.7321926571270672  0.3928375129256256  1.0000
  O   O6        1.0  0.8419680287677072  0.516414303840897  0.6095517442461091  1.0000
  O   O7        1.0  0.8402810065532678  0.5289167326877433  0.1904844427597765  1.0000
  O   O8        1.0  0.8400266007819284  0.31313665091497933  0.4071987478517527  1.0000
