data_image0
_chemical_formula_structural       NC12NC2H8C6OCH8C12H16Zn2C4O8
_chemical_formula_sum              "N2 C37 H32 O9 Zn2"
_cell_length_a       17.80743265337812
_cell_length_b       9.273888216677431
_cell_length_c       10.298981074953016
_cell_angle_alpha    85.76442660139531
_cell_angle_beta     91.51542336112495
_cell_angle_gamma    88.85715842325122

_space_group_name_H-M_alt    "P 1"
_space_group_IT_number       1

loop_
  _space_group_symop_operation_xyz
  'x, y, z'

loop_
  _atom_site_type_symbol
  _atom_site_label
  _atom_site_symmetry_multiplicity
  _atom_site_fract_x
  _atom_site_fract_y
  _atom_site_fract_z
  _atom_site_occupancy
  N   N1        1.0  0.6995389647035405  0.561973543510156  0.6058537207328978  1.0000
  C   C1        1.0  0.6485606789930439  0.5947909754732916  0.5372489742898807  1.0000
  C   C2        1.0  0.5851386876199657  0.6356134791128514  0.4519133109894662  1.0000
  C   C3        1.0  0.5965759432620896  0.6955894091657517  0.32546530632683845  1.0000
  C   C4        1.0  0.5350695675313449  0.7347424379553236  0.24252081523551144  1.0000
  C   C5        1.0  0.46197022925896525  0.7142120406901278  0.28536526317917765  1.0000
  C   C6        1.0  0.44955680222774375  0.6541042325394055  0.4122810376916275  1.0000
  C   C7        1.0  0.5119204782405634  0.6149548153439177  0.4952090272039163  1.0000
  C   C8        1.0  0.3718951813324025  0.632336915525401  0.4579822434789898  1.0000
  C   C9        1.0  0.3529290313463719  0.6625422342638908  0.5851181430569968  1.0000
  C   C10       1.0  0.27979949917194885  0.6420580091711685  0.6280032897953812  1.0000
  C   C11       1.0  0.2246944685210631  0.5910861914164749  0.5445897033448698  1.0000
  C   C12       1.0  0.1494312790503662  0.569988211165013  0.5888740224044007  1.0000
  N   N2        1.0  0.0889250049228887  0.5530268539743703  0.6244755683681343  1.0000
  C   C13       1.0  0.24297000552750306  0.560693356882791  0.4179962401200044  1.0000
  C   C14       1.0  0.3160466429296462  0.5811939716968657  0.3748552474623841  1.0000
  H   H1        1.0  0.6529619873311306  0.7120473239307588  0.291075454889687  1.0000
  H   H2        1.0  0.5440414982918563  0.7814802140396688  0.14487562627930872  1.0000
  H   H3        1.0  0.415171094638303  0.747114907842902  0.21986879414315366  1.0000
  H   H4        1.0  0.5036549752032009  0.566678628634109  0.5927252762938822  1.0000
  H   H5        1.0  0.3943783902682224  0.7038377245627241  0.6508135367705401  1.0000
  H   H6        1.0  0.2662120714572906  0.6663290530022932  0.7260856187281217  1.0000
  H   H7        1.0  0.2007963547596416  0.5208052413219628  0.3527179202791189  1.0000
  H   H8        1.0  0.3291145143782316  0.5552177256671185  0.27707128415109095  1.0000
  C   C15       1.0  0.896441928451636  0.13398721507173805  0.6139434099427935  1.0000
  C   C16       1.0  0.8789187875930229  0.2176434386989945  0.49710233998730713  1.0000
  C   C17       1.0  0.8550027631297159  0.15345952961208506  0.38505081495505383  1.0000
  C   C18       1.0  0.8484710066925947  0.002629090938123918  0.38941664390225394  1.0000
  C   C19       1.0  0.8667808584828686  0.9177594899673704  0.5037971242196606  1.0000
  C   C20       1.0  0.8920292716901191  0.9810019467197095  0.6163973850580021  1.0000
  O   O1        1.0  0.8379342727731515  0.24327271035880527  0.2720497305619061  1.0000
  C   C21       1.0  0.8128805592883741  0.19291428717781467  0.15133261539831833  1.0000
  H   H9        1.0  0.9025006682462421  0.21055786711639057  0.9338360032291435  1.0000
  H   H10       1.0  0.882092821809289  0.3344457759583221  0.4934045892741413  1.0000
  H   H11       1.0  0.8299418065530304  0.9496112282220739  0.3045347741601343  1.0000
  H   H12       1.0  0.8628766842330003  0.8013807408770112  0.5031779542822976  1.0000
  H   H13       1.0  0.8992584539023237  0.6819221526248312  0.8311080642513711  1.0000
  H   H14       1.0  0.7589614704406221  0.13603031670122312  0.1637218709309849  1.0000
  H   H15       1.0  0.8560237383322191  0.11931163081596631  0.1144528132663536  1.0000
  H   H16       1.0  0.8037563608507355  0.28680366011627423  0.07909299129955527  1.0000
  C   C22       1.0  0.8943079363030842  0.557462766338668  0.23378553759703105  1.0000
  C   C23       1.0  0.9676428514228866  0.4982001572930692  0.2399108542176336  1.0000
  C   C24       1.0  0.004818321949322967  0.46851814211237497  0.12576243281318256  1.0000
  C   C25       1.0  0.9674667275478988  0.498264892273028  0.0046125844022850675  1.0000
  C   C26       1.0  0.8941632572783409  0.5575263524132075  0.9965552096284155  1.0000
  C   C27       1.0  0.8580374639621315  0.586875446320712  0.11169367456485557  1.0000
  C   C28       1.0  0.08405628418234314  0.4041356027127052  0.1322061954103313  1.0000
  C   C29       1.0  0.08645128052123652  0.24852526090428095  0.19895217122817838  1.0000
  C   C30       1.0  0.16381236656614417  0.20390545018446637  0.26190631552815913  1.0000
  C   C31       1.0  0.22805925111867986  0.27950921879762824  0.19007701264720203  1.0000
  C   C32       1.0  0.22140080325716552  0.4454774421398626  0.19178186972159209  1.0000
  C   C33       1.0  0.13971094042408108  0.5024176676572498  0.1987258231966869  1.0000
  H   H17       1.0  0.7557527798395411  0.6687565256597214  0.42957174745789695  1.0000
  H   H18       1.0  0.9959036353629432  0.4744790143082343  0.3336466301046688  1.0000
  H   H19       1.0  0.9957129485953498  0.4751181990883169  0.9164000717969724  1.0000
  H   H20       1.0  0.8014967461221824  0.6325796209069388  0.10618084034233412  1.0000
  H   H21       1.0  0.8658534969690619  0.5799197920134871  0.6659946462952762  1.0000
  H   H22       1.0  0.10360817601302119  0.3965316091587032  0.031003886584722418  1.0000
  H   H23       1.0  0.0716111601002658  0.1719309962658624  0.12465277338549563  1.0000
  H   H24       1.0  0.043904904055995564  0.23611212375190305  0.2758076252915343  1.0000
  H   H25       1.0  0.165599242550027  0.23216847704621513  0.3650423130234635  1.0000
  H   H26       1.0  0.1719772376028348  0.08475118892240685  0.2621829984375694  1.0000
  H   H27       1.0  0.22716494042125032  0.2491347547621614  0.08756459246399562  1.0000
  H   H28       1.0  0.28276557367800503  0.24100011865749085  0.2357969717526276  1.0000
  H   H29       1.0  0.24718933552902136  0.49529206393422687  0.10258608998905562  1.0000
  H   H30       1.0  0.254163392002398  0.4807082830447602  0.27678488933790146  1.0000
  H   H31       1.0  0.12554489527675505  0.5079861198043139  0.30275654773679483  1.0000
  H   H32       1.0  0.13532964712373108  0.6141377714641043  0.15143821212786057  1.0000
  Zn  Zn1       1.0  0.8119073866875769  0.5593878723544863  0.6112350597962621  1.0000
  Zn  Zn2       1.0  0.9765566397226902  0.5556007619015157  0.6191047887156667  1.0000
  C   C34       1.0  0.8942188776681388  0.5517690002417752  0.8523587186999959  1.0000
  C   C35       1.0  0.8942469372027055  0.5632214123685066  0.3779813484929406  1.0000
  C   C36       1.0  0.8928604852966358  0.8208977903124709  0.6107579558162115  1.0000
  C   C37       1.0  0.8956052824046766  0.2940908908686821  0.6195821729128032  1.0000
  O   O2        1.0  0.9567100315756584  0.5637105860553997  0.42936128275734237  1.0000
  O   O3        1.0  0.9567207623633823  0.548404409328811  0.8069513495785041  1.0000
  O   O4        1.0  0.9556230007801553  0.765729330395631  0.6118569882686342  1.0000
  O   O5        1.0  0.9578077369399693  0.3463856765895985  0.6244555440329583  1.0000
  O   O6        1.0  0.8306562332835815  0.7686029589603283  0.605884301786592  1.0000
  O   O7        1.0  0.8317539858496245  0.5512797706165611  0.8009785988680054  1.0000
  O   O8        1.0  0.8317432556698181  0.56658589695467  0.42338697043766516  1.0000
  O   O9        1.0  0.832840961066329  0.34926097718177473  0.6184813290551561  1.0000
