data_image0
_chemical_formula_structural       NC6NC3H6C7NH3C6ClH3Zn2C4O8
_chemical_formula_sum              "N3 C26 H12 Cl1 Zn2 O8"
_cell_length_a       14.934028789175542
_cell_length_b       9.275154477615127
_cell_length_c       10.302974078461048
_cell_angle_alpha    85.7869106659326
_cell_angle_beta     89.97499619632823
_cell_angle_gamma    89.3962875590186

_space_group_name_H-M_alt    "P 1"
_space_group_IT_number       1

loop_
  _space_group_symop_operation_xyz
  'x, y, z'

loop_
  _atom_site_type_symbol
  _atom_site_label
  _atom_site_symmetry_multiplicity
  _atom_site_fract_x
  _atom_site_fract_y
  _atom_site_fract_z
  _atom_site_occupancy
  N   N1        1.0  0.8335081194015682  0.5770495739252699  0.573131705529383  1.0000
  C   C1        1.0  0.7560287874761987  0.5759516823513625  0.5725163968443447  1.0000
  C   C2        1.0  0.6596406241303931  0.5745808573063458  0.5717482972915171  1.0000
  C   C3        1.0  0.6112259091262502  0.6813416278538333  0.6314720310666595  1.0000
  C   C4        1.0  0.5177209074790582  0.6802409512015297  0.6308561775509232  1.0000
  C   C5        1.0  0.47171773897903124  0.5724339869754309  0.5705472495389188  1.0000
  C   C6        1.0  0.3750578418155554  0.5747470942504869  0.5718424043918333  1.0000
  N   N2        1.0  0.29756650884970215  0.5765828365004086  0.5728705687757536  1.0000
  C   C7        1.0  0.5201359056406687  0.4641962045209615  0.5099967511979367  1.0000
  C   C8        1.0  0.4725356321569972  0.3469876249339729  0.44442951875876474  1.0000
  C   C9        1.0  0.6142651146946747  0.46642001712238107  0.511240835788376  1.0000
  H   H1        1.0  0.6457563495746337  0.765459211942549  0.6785293241522645  1.0000
  H   H2        1.0  0.48117536001040595  0.7637107078839218  0.6775509354336895  1.0000
  H   H3        1.0  0.4294849252135977  0.39604622446178567  0.36480245197648586  1.0000
  H   H4        1.0  0.4301765354297253  0.28415671159436906  0.5163581323450888  1.0000
  H   H5        1.0  0.5204582160994641  0.2710699397203231  0.4019540990014249  1.0000
  H   H6        1.0  0.6522969391935358  0.38406065702116754  0.46516751434407744  1.0000
  C   C10       1.0  0.06813280270291953  0.1534242890775439  0.5714973557557499  1.0000
  C   C11       1.0  0.04355414947472423  0.2366280986797931  0.4570447449518177  1.0000
  C   C12       1.0  0.011692080327229562  0.17062172412535648  0.34865969102748084  1.0000
  C   C13       1.0  0.003884040961685595  0.02050905256817703  0.3534508629433375  1.0000
  C   C14       1.0  0.029292611459650113  0.9360967332737712  0.46529383530803936  1.0000
  C   C15       1.0  0.06295050208035691  0.00019701947068597017  0.5745161246758285  1.0000
  C   C16       1.0  0.985922127738443  0.25740854430159676  0.23282813150677747  1.0000
  N   N3        1.0  0.965210233994161  0.32716923449249213  0.13972922733133353  1.0000
  H   H7        1.0  0.0854950155939993  0.23007787420466186  0.8901604039036606  1.0000
  H   H8        1.0  0.9789189136359997  0.9684075894847305  0.27015041038446097  1.0000
  H   H9        1.0  0.0784408052882768  0.7014111875505832  0.7880272605912741  1.0000
  C   C17       1.0  0.06554165781280852  0.5768106624925694  0.19176422733913046  1.0000
  C   C18       1.0  0.05088221920933965  0.42707783973656177  0.2004728110189251  1.0000
  C   C19       1.0  0.0436086515669989  0.35278449131412115  0.0878369814760651  1.0000
  C   C20       1.0  0.050882258759225696  0.42707792112217335  0.9653649123155631  1.0000
  C   C21       1.0  0.06554165598425499  0.5768105880712073  0.9542492461485166  1.0000
  C   C22       1.0  0.07279993298413595  0.650947146015346  0.06809900839639815  1.0000
  Cl  Cl1       1.0  0.025295533083688815  0.1657326243480517  0.10021961410586398  1.0000
  H   H10       1.0  0.04505183032853431  0.3675255995479958  0.2944616478202455  1.0000
  H   H11       1.0  0.04505189302676649  0.36752557891190457  0.8792606816377835  1.0000
  H   H12       1.0  0.08410569186377859  0.766425593146427  0.06045436227007283  1.0000
  Zn  Zn1       1.0  0.9674253835418416  0.5769110200236038  0.573063824698155  1.0000
  Zn  Zn2       1.0  0.16364934705472656  0.5767095800566513  0.5729490216982989  1.0000
  C   C23       1.0  0.06557479840157643  0.571066866501805  0.8101027488407495  1.0000
  C   C24       1.0  0.06550206382107393  0.5825555505575385  0.33591023021159483  1.0000
  C   C25       1.0  0.06392545439486463  0.8401389343521581  0.5687720274834364  1.0000
  C   C26       1.0  0.06715135147163598  0.31348175054384764  0.5772410146483845  1.0000
  O   O1        1.0  0.1399547857346277  0.5844008520061366  0.3842433560015377  1.0000
  O   O2        1.0  0.14005153113751934  0.569067589101345  0.7616821126306178  1.0000
  O   O3        1.0  0.13871866115635556  0.7863466878016936  0.5668058536114557  1.0000
  O   O4        1.0  0.14128758869472524  0.36712176368844096  0.5791195177542542  1.0000
  O   O5        1.0  0.9897870749402251  0.7864988364621254  0.5668933286745528  1.0000
  O   O6        1.0  0.9911199343159199  0.5692214699954257  0.7617695246465924  1.0000
  O   O7        1.0  0.9910231892801035  0.5845546826575254  0.38432920695527306  1.0000
  O   O8        1.0  0.9923559922996497  0.3672755840274875  0.5792054660067881  1.0000
