data_image0
_chemical_formula_structural       NC9NC5H8C7ONH7C9H10Zn2C4O8
_chemical_formula_sum              "N3 C34 H25 O9 Zn2"
_cell_length_a       17.807436237873137
_cell_length_b       10.297852080636378
_cell_length_c       9.272679976505533
_cell_angle_alpha    86.02025868142809
_cell_angle_beta     89.80029134641114
_cell_angle_gamma    88.36921327777658

_space_group_name_H-M_alt    "P 1"
_space_group_IT_number       1

loop_
  _space_group_symop_operation_xyz
  'x, y, z'

loop_
  _atom_site_type_symbol
  _atom_site_label
  _atom_site_symmetry_multiplicity
  _atom_site_fract_x
  _atom_site_fract_y
  _atom_site_fract_z
  _atom_site_occupancy
  N   N1        1.0  0.7013604467318421  0.37669360796143936  0.39833903244122193  1.0000
  C   C1        1.0  0.6407363127983016  0.341410794108445  0.38610201631152696  1.0000
  C   C2        1.0  0.5653265532805867  0.2975228590882293  0.37088049692713954  1.0000
  C   C3        1.0  0.5468310408630165  0.22527051826223454  0.254322286983629  1.0000
  C   C4        1.0  0.47361174958316815  0.18254654851891322  0.2394514513190085  1.0000
  C   C5        1.0  0.4178392020478182  0.21169706463895951  0.3411028035132426  1.0000
  C   C6        1.0  0.3400262735334151  0.1664080704781914  0.3253900626829733  1.0000
  C   C7        1.0  0.2779362686808143  0.24838307386471523  0.3541833580040561  1.0000
  C   C8        1.0  0.2045747698260983  0.20545613537170349  0.339327709523336  1.0000
  C   C9        1.0  0.1414355620119449  0.2901258499975048  0.36852494902733035  1.0000
  N   N2        1.0  0.0906846255506189  0.3581944513459978  0.3919987231646265  1.0000
  C   C10       1.0  0.1927196840174889  0.08029596633607984  0.29565062682343446  1.0000
  C   C11       1.0  0.25395228847293566  0.9983070422291938  0.26684801855228235  1.0000
  C   C12       1.0  0.327193629853446  0.040837776595402  0.28147884025520753  1.0000
  C   C13       1.0  0.43702689006575224  0.2844455845901115  0.4579043681270924  1.0000
  C   C14       1.0  0.5102984714402581  0.32697790297524826  0.4726024241392164  1.0000
  H   H1        1.0  0.5889444536198302  0.20221838455438723  0.1747176136549633  1.0000
  H   H2        1.0  0.4603795128494119  0.1282035857509309  0.14740574510644322  1.0000
  H   H3        1.0  0.2865285055820162  0.346092773260553  0.38623806901714297  1.0000
  H   H4        1.0  0.1362195254775027  0.04617041867722871  0.2838898631256688  1.0000
  H   H5        1.0  0.24465674318158484  0.9014081764890028  0.233460789339293  1.0000
  H   H6        1.0  0.3737722538999023  0.9749309839720882  0.26033432936954726  1.0000
  H   H7        1.0  0.3956356378134235  0.30696872563894306  0.5389460003344502  1.0000
  H   H8        1.0  0.5240546435729554  0.38253350638583394  0.563491869883759  1.0000
  C   C15       1.0  0.8961062375055283  0.9860029849569163  0.3951761430084384  1.0000
  C   C16       1.0  0.8852834263931036  0.994963970907177  0.2447452897556348  1.0000
  C   C17       1.0  0.8791325223801698  0.8824472050132788  0.16859830918501806  1.0000
  C   C18       1.0  0.8850933299422883  0.7597204341274238  0.24469865031704566  1.0000
  C   C19       1.0  0.8959460284172387  0.7488748596225115  0.3951739586203651  1.0000
  C   C20       1.0  0.901203821798297  0.8625403857453818  0.4694665490004342  1.0000
  C   C21       1.0  0.8678877244925359  0.8945034635121993  0.009690819308912916  1.0000
  O   O1        1.0  0.8876997851454845  0.9961469986737724  0.9375767993133634  1.0000
  N   N3        1.0  0.8340575522932842  0.7937624851178801  0.9358085517371285  1.0000
  H   H9        1.0  0.9168331396877687  0.17632670730002678  0.6794096244316992  1.0000
  H   H10       1.0  0.8809589816915749  0.08987553857708132  0.18670243513354756  1.0000
  H   H11       1.0  0.8827604234463463  0.6722126598307918  0.18691501969177748  1.0000
  H   H12       1.0  0.9095432228806188  0.854880582414786  0.5854055072579318  1.0000
  H   H13       1.0  0.917660144907463  0.5210615636598226  0.6792599930120684  1.0000
  H   H14       1.0  0.8298676295988314  0.8022172371229808  0.8232354360355671  1.0000
  H   H15       1.0  0.8086017911845308  0.7152371424367083  0.9916188787130991  1.0000
  C   C22       1.0  0.8945037120926307  0.3644440525737238  0.971837217166914  1.0000
  C   C23       1.0  0.9455719283716889  0.28167012471082575  0.05127227266805279  1.0000
  C   C24       1.0  0.0003373006053941647  0.20924631130029023  0.9817798217917652  1.0000
  C   C25       1.0  0.005886356308393739  0.21721223608492646  0.8308271519316515  1.0000
  C   C26       1.0  0.9539168104487914  0.29826611696931304  0.7500225091093449  1.0000
  C   C27       1.0  0.8975485712526706  0.3704338099415299  0.8185129875171016  1.0000
  C   C28       1.0  0.06765877366746165  0.1360314270043692  0.7636734095721707  1.0000
  C   C29       1.0  0.049783885845662956  0.07743679324021846  0.6218650064228326  1.0000
  C   C30       1.0  0.10259736373115413  0.1912325230459366  0.6231857327033357  1.0000
  H   H16       1.0  0.7813755056091689  0.4576418411424754  0.24662989342076405  1.0000
  H   H17       1.0  0.9443840742986234  0.2751744951604449  0.1683662597243356  1.0000
  H   H18       1.0  0.039238932819968264  0.14737005988798235  0.04677907007825332  1.0000
  H   H19       1.0  0.9555960148204967  0.3038015636131959  0.6332162244224766  1.0000
  H   H20       1.0  0.726975242706247  0.5007354734327978  0.7065873511301293  1.0000
  H   H21       1.0  0.10693316157541542  0.07573337158757809  0.835220447979836  1.0000
  H   H22       1.0  0.9939801184440442  0.10225427198691062  0.5730920489135096  1.0000
  H   H23       1.0  0.07898202802768006  0.9825387208851254  0.6070960852468366  1.0000
  H   H24       1.0  0.07891101340148476  0.2851134595070701  0.5750977599290561  1.0000
  H   H25       1.0  0.16267144788344587  0.16283414316795852  0.6091847462803388  1.0000
  Zn  Zn1       1.0  0.8137110243918907  0.37135174400739096  0.39651769349307786  1.0000
  Zn  Zn2       1.0  0.9783340745379159  0.36352581096985803  0.39383191369574777  1.0000
  C   C31       1.0  0.8969724458672901  0.3641270254837963  0.6584731368316505  1.0000
  C   C32       1.0  0.8950744509058272  0.37075208396449755  0.13187658251785872  1.0000
  C   C33       1.0  0.8959518079815031  0.6046353782735763  0.3894297862279621  1.0000
  C   C34       1.0  0.8960950332213561  0.13024217379167746  0.4009200109005935  1.0000
  O   O2        1.0  0.9577395868453452  0.36989354930998997  0.1845680160871106  1.0000
  O   O3        1.0  0.9592523945838638  0.35904487519928585  0.6037428435565788  1.0000
  O   O4        1.0  0.9584273798002491  0.5532584623604395  0.38648844815401606  1.0000
  O   O5        1.0  0.9585645450635909  0.1756799733465959  0.401822304315552  1.0000
  O   O6        1.0  0.8334804976884203  0.5591975843026205  0.38852730378221545  1.0000
  O   O7        1.0  0.8343055118644976  0.36498555719647463  0.6057816223146746  1.0000
  O   O8        1.0  0.8327926979522934  0.3758341737787003  0.18660506161457135  1.0000
  O   O9        1.0  0.8336176565581128  0.18162058928951375  0.4038594579260759  1.0000
