data_image0
_chemical_formula_structural       NC14NH8C6H6C12H9Zn2C4O8
_chemical_formula_sum              "N2 C36 H23 Zn2 O8"
_cell_length_a       17.45760127107867
_cell_length_b       10.68111822825955
_cell_length_c       14.994061290378351
_cell_angle_alpha    85.558233291821
_cell_angle_beta     86.76043564938769
_cell_angle_gamma    89.76106141281505

_space_group_name_H-M_alt    "P 1"
_space_group_IT_number       1

loop_
  _space_group_symop_operation_xyz
  'x, y, z'

loop_
  _atom_site_type_symbol
  _atom_site_label
  _atom_site_symmetry_multiplicity
  _atom_site_fract_x
  _atom_site_fract_y
  _atom_site_fract_z
  _atom_site_occupancy
  N   N1        1.0  0.7225533879038324  0.3708576883359189  0.9685707078135442  1.0000
  C   C1        1.0  0.6614721053784033  0.33755131028223606  0.9933089382235263  1.0000
  C   C2        1.0  0.5854845148290233  0.2961187708033693  0.02407542138070351  1.0000
  C   C3        1.0  0.5269642596043181  0.29655713148358953  0.9638212997792068  1.0000
  C   C4        1.0  0.45241486014854637  0.2566066897084278  0.9933732179654156  1.0000
  C   C5        1.0  0.4376741148046847  0.21628429548026196  0.0842956301212252  1.0000
  C   C6        1.0  0.49618278267040955  0.2159012006322554  0.1442022956007487  1.0000
  C   C7        1.0  0.5699475024267957  0.2557041680902401  0.11428126123566784  1.0000
  C   C8        1.0  0.3903041923946353  0.2569651579019635  0.9296132699117108  1.0000
  C   C9        1.0  0.3157538224496981  0.29660666855997253  0.9550001900767757  1.0000
  C   C10       1.0  0.2572336236023631  0.29684607299448906  0.8947563588142213  1.0000
  C   C11       1.0  0.2727716052109448  0.2574224871528168  0.8087285503709535  1.0000
  C   C12       1.0  0.3465371822106628  0.2179326933112103  0.7829570231752276  1.0000
  C   C13       1.0  0.4050458505483803  0.21764201208000422  0.8428588523526397  1.0000
  C   C14       1.0  0.1812449629115564  0.33795670329927646  0.9212032800703325  1.0000
  N   N2        1.0  0.12016298653881193  0.3710044145320398  0.9424691946645026  1.0000
  H   H1        1.0  0.5393177577132333  0.3295571916025453  0.8943286188665704  1.0000
  H   H2        1.0  0.38118618129774895  0.18348123171344177  0.10881775681820144  1.0000
  H   H3        1.0  0.4843429501402327  0.18434782152852813  0.21395071479724903  1.0000
  H   H4        1.0  0.6148019441996747  0.25496832562451566  0.16139492671429956  1.0000
  H   H5        1.0  0.3033995100603318  0.32884410891343574  0.02107890182862915  1.0000
  H   H6        1.0  0.22791710125730166  0.25721646748290067  0.7616641617118238  1.0000
  H   H7        1.0  0.3583777864529168  0.18714536938461454  0.7164709205594867  1.0000
  H   H8        1.0  0.46153454041428077  0.18509556625707435  0.8217564207691195  1.0000
  C   C15       1.0  0.9213618593595004  0.0031810480023836724  0.9555235324512734  1.0000
  C   C16       1.0  0.955033431669988  0.9286759015548318  0.02415935297915783  1.0000
  C   C17       1.0  0.9550334199452293  0.7977936633771883  0.024159312963182085  1.0000
  C   C18       1.0  0.9213618464734618  0.7386714519521074  0.9555235718607953  1.0000
  C   C19       1.0  0.8877181476147402  0.8131652053450534  0.8869444670362099  1.0000
  C   C20       1.0  0.8877181593016503  0.9440574634460112  0.8869445024753535  1.0000
  H   H9        1.0  0.887310578515357  0.30966895224151164  0.8861145167129376  1.0000
  H   H10       1.0  0.9814268441014082  0.9714578863915909  0.07795931779337079  1.0000
  H   H11       1.0  0.9814267497753144  0.7429538577619952  0.07795930822751662  1.0000
  H   H12       1.0  0.8613212938502063  0.770428762731627  0.8331374772913362  1.0000
  H   H13       1.0  0.8613212737404605  0.9988532017585406  0.8331374713576926  1.0000
  H   H14       1.0  0.8873108610161872  0.44773960147092917  0.8861142568508793  1.0000
  C   C21       1.0  0.9213942924226909  0.3709421616730236  0.6935547251451315  1.0000
  C   C22       1.0  0.9632319664984487  0.280193782170409  0.6482132501745599  1.0000
  C   C23       1.0  0.9631921077848404  0.28014480769816696  0.5549977476469506  1.0000
  C   C24       1.0  0.9213807918107858  0.3708764280844519  0.5050619911554972  1.0000
  C   C25       1.0  0.8795862453936483  0.4616180883558  0.5505005130086915  1.0000
  C   C26       1.0  0.8795737786751553  0.46160439629865097  0.6437264768287321  1.0000
  C   C27       1.0  0.9213625327860665  0.37086744243082675  0.40598982361449565  1.0000
  C   C28       1.0  0.9257122588818685  0.4842948380898443  0.35175129611551625  1.0000
  C   C29       1.0  0.9257274220808408  0.4842947669359435  0.2585258486608195  1.0000
  C   C30       1.0  0.9213294111014394  0.3709102798271222  0.21749240894269758  1.0000
  C   C31       1.0  0.9169459089006419  0.25743846714806073  0.2716361666814141  1.0000
  C   C32       1.0  0.9169954060286594  0.2574334832403233  0.3648540250639811  1.0000
  H   H15       1.0  0.9962182608156122  0.20928210152017024  0.684718480180367  1.0000
  H   H16       1.0  0.996763250831595  0.21002189255436557  0.5218559865578103  1.0000
  H   H17       1.0  0.8460030401977728  0.5317307453182053  0.5140456185887756  1.0000
  H   H18       1.0  0.8465945719472644  0.5325349132455257  0.6767192481195226  1.0000
  H   H19       1.0  0.9301497288870632  0.5730993810046794  0.38135653254037005  1.0000
  H   H20       1.0  0.929385852932174  0.5732371818494897  0.21864232212623613  1.0000
  H   H21       1.0  0.9256705869399655  0.48566163719074273  0.9980839807487418  1.0000
  H   H22       1.0  0.9132752843851247  0.16850532123518366  0.24202051385203927  1.0000
  H   H23       1.0  0.9125714324744715  0.16863109725229714  0.40484571443268624  1.0000
  Zn  Zn1       1.0  0.8372949261008138  0.3708966798400265  0.9610435167094202  1.0000
  Zn  Zn2       1.0  0.005421424442921823  0.37095518380921566  0.9500036597893973  1.0000
  C   C33       1.0  0.9213399567602879  0.36592740410066577  0.11845705575227716  1.0000
  C   C34       1.0  0.9213782297086901  0.3759260402855984  0.7925900877506156  1.0000
  C   C35       1.0  0.9213583325154475  0.5996482988964575  0.9519689098180689  1.0000
  C   C36       1.0  0.9213597965778629  0.14220364088372353  0.9590782850130734  1.0000
  O   O1        1.0  0.985175968837522  0.37761541401332965  0.8216376919734814  1.0000
  O   O2        1.0  0.9851463397225859  0.36428148881145495  0.08103019877073131  1.0000
  O   O3        1.0  0.98516031816568  0.5530140668075039  0.946589899475875  1.0000
  O   O4        1.0  0.9851619330325265  0.18888284495984628  0.9560779281471703  1.0000
  O   O5        1.0  0.8575543601378872  0.5529690186707947  0.9549692521143169  1.0000
  O   O6        1.0  0.8575403816971391  0.3642379452622275  0.08940950384359303  1.0000
  O   O7        1.0  0.8575700109959361  0.37757182688948215  0.8300159244901668  1.0000
  O   O8        1.0  0.8575559751795199  0.18883924887483186  0.9644562275476924  1.0000
