data_image0
_chemical_formula_structural       NC14NH8C12H10C12H10Zn2C4O8
_chemical_formula_sum              "N2 C42 H28 Zn2 O8"
_cell_length_a       17.45760127107867
_cell_length_b       14.388199552941785
_cell_length_c       14.388202922059104
_cell_angle_alpha    85.37141914913748
_cell_angle_beta     89.19068272388164
_cell_angle_gamma    92.14570548014439

_space_group_name_H-M_alt    "P 1"
_space_group_IT_number       1

loop_
  _space_group_symop_operation_xyz
  'x, y, z'

loop_
  _atom_site_type_symbol
  _atom_site_label
  _atom_site_symmetry_multiplicity
  _atom_site_fract_x
  _atom_site_fract_y
  _atom_site_fract_z
  _atom_site_occupancy
  N   N1        1.0  0.7198678413136113  0.013826475174723457  0.9181773570432645  1.0000
  C   C1        1.0  0.658840048971935  0.9891929023825417  0.9441270501540346  1.0000
  C   C2        1.0  0.5829187272990332  0.958549140054635  0.9764002730206347  1.0000
  C   C3        1.0  0.5222053154898156  0.9585693738938009  0.9137257461036854  1.0000
  C   C4        1.0  0.4477156435195676  0.9290212019060399  0.9447259317091898  1.0000
  C   C5        1.0  0.43527032197934545  0.8995078248069561  0.03956137136491  1.0000
  C   C6        1.0  0.49596084791902173  0.8995269116543267  0.10187413823339686  1.0000
  C   C7        1.0  0.5696485657986899  0.928963582954945  0.07049099602009623  1.0000
  C   C8        1.0  0.3832815178216937  0.9289642629768615  0.8784054421987815  1.0000
  C   C9        1.0  0.31067342936560044  0.9585614544233246  0.904550389039444  1.0000
  C   C10       1.0  0.24995536368401608  0.9584338418041801  0.8418878730067844  1.0000
  C   C11       1.0  0.2613381216856779  0.9286910563529587  0.7526675635204667  1.0000
  C   C12       1.0  0.3331512255034744  0.8992046961846044  0.7261215812077328  1.0000
  C   C13       1.0  0.3938439377214639  0.899292456266414  0.7884287103265623  1.0000
  C   C14       1.0  0.17598532503906822  0.989128513510712  0.8691256943997463  1.0000
  N   N2        1.0  0.11652628168452582  0.013803150747612854  0.8910276310278962  1.0000
  H   H1        1.0  0.5328601746338945  0.9827482268806724  0.8412279716311013  1.0000
  H   H2        1.0  0.37884084086077796  0.8752473059893491  0.06528298209814531  1.0000
  H   H3        1.0  0.4858659977061088  0.8764247791366575  0.17462840319054163  1.0000
  H   H4        1.0  0.6162078220204618  0.9286555559253701  0.11949979888676432  1.0000
  H   H5        1.0  0.3015607855195318  0.9828610657059977  0.9730684336535202  1.0000
  H   H6        1.0  0.2147565254507707  0.9282991786716703  0.70371620511934  1.0000
  H   H7        1.0  0.3417723321700809  0.8759809955223008  0.6571702691922028  1.0000
  H   H8        1.0  0.4487284913632513  0.8749912753312397  0.7666935213416131  1.0000
  C   C15       1.0  0.9087985969197927  0.740439493702957  0.9070233205902124  1.0000
  C   C16       1.0  0.8327565887390252  0.7618132555964319  0.92722544488301  1.0000
  C   C17       1.0  0.776244517750958  0.6907533168304337  0.9423754047618167  1.0000
  C   C18       1.0  0.7947557390252383  0.5977061638125378  0.9375782753318822  1.0000
  C   C19       1.0  0.8703754939380547  0.5745450953803204  0.9174075074136678  1.0000
  C   C20       1.0  0.9270889871714965  0.646547226559155  0.9022492789433365  1.0000
  C   C21       1.0  0.8900914885109663  0.47553973944705136  0.9121761205249843  1.0000
  C   C22       1.0  0.8588199038877241  0.40565230980348743  0.9771477859302473  1.0000
  C   C23       1.0  0.8773939834405938  0.3124978261314607  0.9722494153469488  1.0000
  C   C24       1.0  0.9276028832984454  0.28718303997778566  0.9021892205625655  1.0000
  C   C25       1.0  0.9588344033803865  0.3569603260675463  0.8371982686830542  1.0000
  C   C26       1.0  0.9403064396432899  0.45012719125005046  0.8421449002413348  1.0000
  H   H9        1.0  0.08576584151481881  0.84472542991014  0.8600315162390559  1.0000
  H   H10       1.0  0.8168984511671424  0.833429049583215  0.9313236643102092  1.0000
  H   H11       1.0  0.7177911212400084  0.7078910734421439  0.9576511201048945  1.0000
  H   H12       1.0  0.7497208955784577  0.5439383114677948  0.9484178579826898  1.0000
  H   H13       1.0  0.9857037143139216  0.6292054757295664  0.8879868950303307  1.0000
  H   H14       1.0  0.8207264784610819  0.4231821250295962  0.03260182185736104  1.0000
  H   H15       1.0  0.8525424385836047  0.2603512186215856  0.02352300750011993  1.0000
  H   H16       1.0  0.011184524153442064  0.09703861189687431  0.8226933031733751  1.0000
  H   H17       1.0  0.9975066746476825  0.33965343183070473  0.7822389466858821  1.0000
  H   H18       1.0  0.9645152835927095  0.5021792175102157  0.79033278855282  1.0000
  C   C27       1.0  0.9086495959226885  0.012494285919007135  0.6321265902663317  1.0000
  C   C28       1.0  0.8313396584316434  0.0011909226911468408  0.6608221335672122  1.0000
  C   C29       1.0  0.7738721641465508  0.9926544983732435  0.595225650709297  1.0000
  C   C30       1.0  0.7926804342279689  0.9952856253395966  0.5004158756371648  1.0000
  C   C31       1.0  0.8695688109893537  0.006606935754995824  0.4699605619506628  1.0000
  C   C32       1.0  0.9272367399114119  0.015128095100211512  0.5364871233020831  1.0000
  C   C33       1.0  0.88961296395607  0.00953112282173007  0.36905785302275157  1.0000
  C   C34       1.0  0.8523689526612571  0.9483512813406908  0.3114093151315931  1.0000
  C   C35       1.0  0.8712493078580148  0.9510761256560277  0.21647234425216677  1.0000
  C   C36       1.0  0.9277518856623064  0.015128234075456153  0.1770859685885824  1.0000
  C   C37       1.0  0.9649579711105531  0.07633194798134867  0.2346233810718905  1.0000
  C   C38       1.0  0.9461187784880382  0.07355361318872622  0.3295781501166821  1.0000
  H   H19       1.0  0.08856542262823175  0.03877670234018061  0.719376930812766  1.0000
  H   H20       1.0  0.8152281477098565  0.9989482194336134  0.7339460666787673  1.0000
  H   H21       1.0  0.7144684925662753  0.9842187041551669  0.6179503944063727  1.0000
  H   H22       1.0  0.7470028830571277  0.9897136408309328  0.4508010016584538  1.0000
  H   H23       1.0  0.9867028612803859  0.022534232118739842  0.5137149168186712  1.0000
  H   H24       1.0  0.809279284574975  0.8974609530313924  0.33998967778854094  1.0000
  H   H25       1.0  0.8416860273979371  0.9028151354913427  0.17399341624578724  1.0000
  H   H26       1.0  0.01823847195958516  0.08470932939921359  0.9695639519531145  1.0000
  H   H27       1.0  0.008573827319868995  0.1266612941926405  0.20631582318971423  1.0000
  H   H28       1.0  0.9750968690632239  0.12242671858457464  0.3719089055418927  1.0000
  Zn  Zn1       1.0  0.8343349982280374  0.01381727965448465  0.9103479026690366  1.0000
  Zn  Zn2       1.0  0.0020591052010714376  0.013804771608074903  0.8988647185712212  1.0000
  C   C39       1.0  0.9240118677887628  0.010921716037579405  0.07410987070731968  1.0000
  C   C40       1.0  0.9123841107731692  0.016701510134465632  0.7351027058234729  1.0000
  C   C41       1.0  0.9239149098589599  0.18381897373191203  0.899405692859861  1.0000
  C   C42       1.0  0.9124809747368426  0.8438031342173026  0.9098069469478687  1.0000
  O   O1        1.0  0.9772877328839303  0.018104684922770842  0.7653046582918261  1.0000
  O   O2        1.0  0.986406928482096  0.009508344349452356  0.03519218631616006  1.0000
  O   O3        1.0  0.9863278095088152  0.14912507124908325  0.8941173768310584  1.0000
  O   O4        1.0  0.9773667924146906  0.878487964350626  0.9063794020644267  1.0000
  O   O5        1.0  0.8590272537782759  0.14913408691719154  0.9028332230895881  1.0000
  O   O6        1.0  0.859106409481543  0.00951847824564944  0.04390797321151052  1.0000
  O   O7        1.0  0.8499871737142837  0.01811478098637398  0.7740193298841562  1.0000
  O   O8        1.0  0.8500662354514219  0.8784980540920018  0.9150941432830159  1.0000
