data_image0
_chemical_formula_structural       NC14NH8C12H10C12H10Zn2C4O8
_chemical_formula_sum              "N2 C42 H28 Zn2 O8"
_cell_length_a       19.240038476842887
_cell_length_b       13.024581838241813
_cell_length_c       13.024585202197207
_cell_angle_alpha    84.12653577963174
_cell_angle_beta     93.9928008550644
_cell_angle_gamma    93.73322191581578

_space_group_name_H-M_alt    "P 1"
_space_group_IT_number       1

loop_
  _space_group_symop_operation_xyz
  'x, y, z'

loop_
  _atom_site_type_symbol
  _atom_site_label
  _atom_site_symmetry_multiplicity
  _atom_site_fract_x
  _atom_site_fract_y
  _atom_site_fract_z
  _atom_site_occupancy
  N   N1        1.0  0.6491858984965619  0.12410540908248247  0.8366256339113557  1.0000
  C   C1        1.0  0.5890373727467816  0.12410748135925925  0.8366204413225411  1.0000
  C   C2        1.0  0.5142191948037091  0.12411022010290026  0.836613883160161  1.0000
  C   C3        1.0  0.47347417322164415  0.03142682121207432  0.8326866106896604  1.0000
  C   C4        1.0  0.400797194928307  0.031335551046844726  0.8326386862769831  1.0000
  C   C5        1.0  0.3678866740923268  0.12411481521276022  0.8366059137899804  1.0000
  C   C6        1.0  0.40935196437999183  0.2168922082819487  0.8405754062225966  1.0000
  C   C7        1.0  0.4820165602556236  0.21679627663701168  0.8405356793036265  1.0000
  C   C8        1.0  0.2906817656911557  0.12411630504242832  0.8366062785179322  1.0000
  C   C9        1.0  0.2592372853569005  0.1861370740995216  0.9004366777217181  1.0000
  C   C10       1.0  0.18656066274494373  0.18603901845705662  0.9004015531453635  1.0000
  C   C11       1.0  0.1443496766352678  0.12411252337252308  0.8366142115990742  1.0000
  C   C12       1.0  0.1750860957943662  0.062189034508920646  0.7728217184320278  1.0000
  C   C13       1.0  0.24775060918533376  0.062095044500424475  0.7727784227265083  1.0000
  C   C14       1.0  0.0695318678510024  0.12410878460729234  0.8366204511232214  1.0000
  N   N2        1.0  0.009383609923462289  0.12410583013935318  0.8366256501717281  1.0000
  H   H1        1.0  0.49787361720502415  0.9591790531544983  0.8299258845377723  1.0000
  H   H2        1.0  0.3704111757209141  0.9585094935225453  0.8308988463720567  1.0000
  H   H3        1.0  0.3855513051243111  0.2897199764847947  0.8423127876644353  1.0000
  H   H4        1.0  0.5130469522087922  0.28904213698194353  0.8433005905593076  1.0000
  H   H5        1.0  0.2908290113354847  0.23366648327686912  0.9514096737405839  1.0000
  H   H6        1.0  0.1633158428436129  0.23405894407989833  0.9503148100596119  1.0000
  H   H7        1.0  0.1429011186331521  0.01416673357157295  0.7229124215044855  1.0000
  H   H8        1.0  0.2703455080690764  0.01456642002349828  0.7218033077833057  1.0000
  C   C15       1.0  0.8162905668501216  0.8212308256743448  0.8442236359486496  1.0000
  C   C16       1.0  0.782018825312558  0.7584339157710742  0.772447957084378  1.0000
  C   C17       1.0  0.8045653145153847  0.6601040792264127  0.7632682032346736  1.0000
  C   C18       1.0  0.8613971758677209  0.6225317380255281  0.8261535933220199  1.0000
  C   C19       1.0  0.896143173847275  0.6853636709649487  0.897071872353811  1.0000
  C   C20       1.0  0.873650343654987  0.7837251028251481  0.9063184953864738  1.0000
  C   C21       1.0  0.8860236758351272  0.5190532136112759  0.8152989820441685  1.0000
  C   C22       1.0  0.954494399409701  0.513265536760148  0.7858859488287527  1.0000
  C   C23       1.0  0.9792497909889856  0.4187679616298125  0.7680895839463286  1.0000
  C   C24       1.0  0.9360139692810119  0.3288126169253275  0.7791714280493935  1.0000
  C   C25       1.0  0.8681097609660213  0.3327272684062906  0.8093444172468856  1.0000
  C   C26       1.0  0.8422856681536912  0.4269725234014978  0.8290367699428133  1.0000
  H   H9        1.0  0.8111559236872927  0.058442013257598666  0.9329821245832933  1.0000
  H   H10       1.0  0.7378685144753288  0.7853170725014706  0.7231974839558175  1.0000
  H   H11       1.0  0.7777834210500977  0.6132225668489455  0.7070048534479518  1.0000
  H   H12       1.0  0.9404367118222406  0.6578871521533413  0.9456823884592026  1.0000
  H   H13       1.0  0.9012442862409111  0.8303343534142151  0.9620729439563069  1.0000
  H   H14       1.0  0.9884846939113545  0.5826287339469794  0.7748883478775489  1.0000
  H   H15       1.0  0.03192745336556625  0.41542870044111946  0.7448812536240179  1.0000
  H   H16       1.0  0.9552949375696512  0.2556354510073554  0.7650015820222851  1.0000
  H   H17       1.0  0.8361208682560437  0.2612833086325818  0.8191394391045472  1.0000
  H   H18       1.0  0.6738868565352066  0.3420910916022412  0.8717243811183771  1.0000
  C   C27       1.0  0.8149889055131412  0.12286380063013347  0.534442342215586  1.0000
  C   C28       1.0  0.8031606727780032  0.20528142418783113  0.4579462119703628  1.0000
  C   C29       1.0  0.8268397099063024  0.20370237593450205  0.35910570383143803  1.0000
  C   C30       1.0  0.862278222436583  0.11942927296798686  0.33477132352852634  1.0000
  C   C31       1.0  0.8747918578927989  0.03759849598328624  0.4111795547017634  1.0000
  C   C32       1.0  0.8511440965428599  0.039090989078639955  0.5100654966037406  1.0000
  C   C33       1.0  0.8883751705292732  0.11847740747224877  0.2305951191958768  1.0000
  C   C34       1.0  0.9607182229026786  0.11511489651685777  0.22299721660140737  1.0000
  C   C35       1.0  0.9888925112150687  0.12058418820519719  0.126635766605949  1.0000
  C   C36       1.0  0.945323068403099  0.1296993275595102  0.03655864565303046  1.0000
  C   C37       1.0  0.8732957450903478  0.13209750650195606  0.042438100590670436  1.0000
  C   C38       1.0  0.8435872879476549  0.12533955053251056  0.13881800831455426  1.0000
  H   H19       1.0  0.7851667276722405  0.04233004360404303  0.7864038694414691  1.0000
  H   H20       1.0  0.7757419255748268  0.27112062783782176  0.47447830364904964  1.0000
  H   H21       1.0  0.8176454296158348  0.2682703744698493  0.301489472104574  1.0000
  H   H22       1.0  0.9025248722685082  0.9722922171111705  0.39395274044817236  1.0000
  H   H23       1.0  0.8612414990830735  0.9746325108803151  0.5673608361131677  1.0000
  H   H24       1.0  0.9956150594017967  0.1100821802905365  0.2920702471305803  1.0000
  H   H25       1.0  0.04471264083100967  0.11853827711897132  0.1218058681577656  1.0000
  H   H26       1.0  0.9673539198457657  0.13424752112141936  0.9618776710201747  1.0000
  H   H27       1.0  0.8406101302890393  0.13735185959739873  0.9711735344452488  1.0000
  H   H28       1.0  0.6740229232339197  0.16128518373595013  0.05338225430115684  1.0000
  Zn  Zn1       1.0  0.7531313371551076  0.12410279715829331  0.8366316495189405  1.0000
  Zn  Zn2       1.0  0.9054381850236451  0.1241000489319157  0.836628272315278  1.0000
  C   C39       1.0  0.8380037238164667  0.12076275316370497  0.024681106469092606  1.0000
  C   C40       1.0  0.820567522174604  0.12744139466589144  0.648578883702678  1.0000
  C   C41       1.0  0.8371744114754305  0.31245764648177154  0.8278067063612293  1.0000
  C   C42       1.0  0.8213967319622044  0.9357452624154853  0.8454533697423967  1.0000
  O   O1        1.0  0.8802392188014977  0.12897213449623024  0.6868829808569157  1.0000
  O   O2        1.0  0.8939293531734455  0.11922914820560361  0.9863741693760556  1.0000
  O   O3        1.0  0.8932589444347137  0.2740252032699604  0.8273966714998771  1.0000
  O   O4        1.0  0.8809095722338404  0.9741760864948358  0.8458604013918464  1.0000
  O   O5        1.0  0.7776598979698519  0.27402675959741096  0.827399520438084  1.0000
  O   O6        1.0  0.7783303572869597  0.11923194346743177  0.986376932378118  1.0000
  O   O7        1.0  0.7646401628750286  0.12897488874867122  0.6868845075425303  1.0000
  O   O8        1.0  0.7653105196387003  0.9741788336863528  0.8458620054144201  1.0000
