data_image0
_chemical_formula_structural       NC5N2C2NH4C10H6C6BrH3Zn2C4O8
_chemical_formula_sum              "N4 C27 H13 Br1 Zn2 O8"
_cell_length_a       13.87973921873968
_cell_length_b       9.275150299802176
_cell_length_c       9.275428193871797
_cell_angle_alpha    85.84136921910526
_cell_angle_beta     89.94092707489388
_cell_angle_gamma    89.48389152441209

_space_group_name_H-M_alt    "P 1"
_space_group_IT_number       1

loop_
  _space_group_symop_operation_xyz
  'x, y, z'

loop_
  _atom_site_type_symbol
  _atom_site_label
  _atom_site_symmetry_multiplicity
  _atom_site_fract_x
  _atom_site_fract_y
  _atom_site_fract_z
  _atom_site_occupancy
  N   N1        1.0  0.8989319793656977  0.5621103571958888  0.4016836132778918  1.0000
  C   C1        1.0  0.8257177940409509  0.5860564236467918  0.34492980183163957  1.0000
  C   C2        1.0  0.7347884391073378  0.615799773207543  0.2744354364453616  1.0000
  C   C3        1.0  0.6484783850914623  0.5858660836151184  0.3477770496944894  1.0000
  C   C4        1.0  0.5619090383133992  0.6157997089738563  0.2744354766980768  1.0000
  C   C5        1.0  0.4712406732527278  0.5860562777880638  0.3449296994687516  1.0000
  N   N2        1.0  0.3982365483749529  0.5621103324452947  0.40168360242874823  1.0000
  N   N3        1.0  0.5632988181910376  0.6729951924224002  0.1354049245661515  1.0000
  C   C6        1.0  0.6479679887578457  0.7028975176040028  0.06610532258123714  1.0000
  C   C7        1.0  0.6477196043347339  0.761810337758785  0.9120773135835791  1.0000
  N   N4        1.0  0.7329017171252679  0.6729951458522698  0.13540493557719646  1.0000
  H   H1        1.0  0.6486774689504567  0.5400989693667513  0.45872665530181167  1.0000
  H   H2        1.0  0.7123299127580531  0.8294745155477322  0.8893058571523631  1.0000
  H   H3        1.0  0.6483161067659566  0.67106230783581  0.8403970040499638  1.0000
  H   H4        1.0  0.5823251054305034  0.8294724427941857  0.8893051031601341  1.0000
  C   C8        1.0  0.15112914986086112  0.13843037603846906  0.4040958695324208  1.0000
  C   C9        1.0  0.20187764002634845  0.21932670262357593  0.29508337750980723  1.0000
  C   C10       1.0  0.24436768478103366  0.15196267493428928  0.18053101282434358  1.0000
  C   C11       1.0  0.23654063319865015  0.002720786799453648  0.17351565354784482  1.0000
  C   C12       1.0  0.18789603029533827  0.9203737537176464  0.2818805559567841  1.0000
  C   C13       1.0  0.14604861572214345  0.9857792943061792  0.39928388883086985  1.0000
  C   C14       1.0  0.2951297499612053  0.23657471406527075  0.0690260611195932  1.0000
  C   C15       1.0  0.3376304234992422  0.30743996983762667  0.9756731757965637  1.0000
  C   C16       1.0  0.38739674017548786  0.3904281692333449  0.8663610184034846  1.0000
  C   C17       1.0  0.429889219113033  0.46128813257763107  0.7730260281723966  1.0000
  H   H5        1.0  0.10527174322487753  0.4031800041525391  0.63290891247442  1.0000
  H   H6        1.0  0.20650506613937836  0.335798666213446  0.2973093733058012  1.0000
  H   H7        1.0  0.2689036478456286  0.9496358943369645  0.0848761914459033  1.0000
  H   H8        1.0  0.18495425148543765  0.804307740579906  0.2756596228828374  1.0000
  H   H9        1.0  0.08318716250397751  0.8589380393633399  0.7416375730201679  1.0000
  H   H10       1.0  0.46720116021434505  0.5235091980875874  0.6910701977705709  1.0000
  C   C18       1.0  0.14890682162269364  0.5576160157098384  0.9785616765533702  1.0000
  C   C19       1.0  0.2376413955828529  0.5603020147017646  0.05159174538801348  1.0000
  C   C20       1.0  0.3239949302874636  0.5761543554169186  0.9749649836878694  1.0000
  C   C21       1.0  0.322973700103538  0.589741117392673  0.8243305831467933  1.0000
  C   C22       1.0  0.23593530320019185  0.5849736595629054  0.7498051879546717  1.0000
  C   C23       1.0  0.14827099950865397  0.5665936943070649  0.8248180825593421  1.0000
  Br  Br1       1.0  0.4434180892292847  0.58167004801492  0.07649758969029063  1.0000
  H   H11       1.0  0.9166980773912151  0.6291070607151225  0.07672104554069592  1.0000
  H   H12       1.0  0.38978918092939674  0.602634282635161  0.7646774945712691  1.0000
  H   H13       1.0  0.9916460961194277  0.6086239208041031  0.5408432967636192  1.0000
  Zn  Zn1       1.0  0.043020510393985564  0.562106572127391  0.401691955614339  1.0000
  Zn  Zn2       1.0  0.25414806496222586  0.5621024242991046  0.40168713904794795  1.0000
  C   C24       1.0  0.14842347364619843  0.5591490363648763  0.6648901364749904  1.0000
  C   C25       1.0  0.14874739619529365  0.5650617819334314  0.13848908922060943  1.0000
  C   C26       1.0  0.14700832422204702  0.8255514201902419  0.39445160669599333  1.0000
  C   C27       1.0  0.1501624839117699  0.2986576655135662  0.40892770566521697  1.0000
  O   O1        1.0  0.2288157359629488  0.5675527806877546  0.1921603977495343  1.0000
  O   O2        1.0  0.22859606947431366  0.5566537966864264  0.6112147636830325  1.0000
  O   O3        1.0  0.22745223721129726  0.7717771066590133  0.3928337289943866  1.0000
  O   O4        1.0  0.22995949620172618  0.3524294798913805  0.4105413243441747  1.0000
  O   O5        1.0  0.06720900710700928  0.7717795165380206  0.3928377703121677  1.0000
  O   O6        1.0  0.06835282903022444  0.5566579391628387  0.6112187183292591  1.0000
  O   O7        1.0  0.06857249718603022  0.567556854509081  0.19216262030971532  1.0000
  O   O8        1.0  0.06971625740157039  0.35243354453939935  0.4105436549924171  1.0000
