data_image0
_chemical_formula_structural       NC6NC3H6C6NCH9C6NH7Zn2C4O8
_chemical_formula_sum              "N4 C26 H22 Zn2 O8"
_cell_length_a       14.934028789175542
_cell_length_b       9.273386996610926
_cell_length_c       9.274774538082514
_cell_angle_alpha    84.97283399596293
_cell_angle_beta     90.32448570792074
_cell_angle_gamma    89.3610420342759

_space_group_name_H-M_alt    "P 1"
_space_group_IT_number       1

loop_
  _space_group_symop_operation_xyz
  'x, y, z'

loop_
  _atom_site_type_symbol
  _atom_site_label
  _atom_site_symmetry_multiplicity
  _atom_site_fract_x
  _atom_site_fract_y
  _atom_site_fract_z
  _atom_site_occupancy
  N   N1        1.0  0.8267648397565974  0.591929590076949  0.40491028426392517  1.0000
  C   C1        1.0  0.7492833202633636  0.5908369159619871  0.40423242458610664  1.0000
  C   C2        1.0  0.6528924262674858  0.5894726037445415  0.4033862433807918  1.0000
  C   C3        1.0  0.6046899638200293  0.6957270840995008  0.469180265080954  1.0000
  C   C4        1.0  0.5111827734024799  0.6946316283031426  0.46850181537380464  1.0000
  C   C5        1.0  0.464965272666416  0.5873359150028359  0.40206312125207067  1.0000
  C   C6        1.0  0.3683099792053926  0.5896380415836495  0.4034899266401441  1.0000
  N   N2        1.0  0.2908223011229841  0.5914650664048469  0.40462260534909156  1.0000
  C   C7        1.0  0.5131682481655745  0.479611431994235  0.33535829806346396  1.0000
  C   C8        1.0  0.46533495573123046  0.36295867770182033  0.26312685949426273  1.0000
  C   C9        1.0  0.6073018786138804  0.4818246981816083  0.3367288312112673  1.0000
  H   H1        1.0  0.6393876418655495  0.779445753339866  0.5210204412585799  1.0000
  H   H2        1.0  0.4748031750207423  0.7777055435781579  0.5199426071624378  1.0000
  H   H3        1.0  0.4219237171143554  0.4128213918879257  0.17433098992614027  1.0000
  H   H4        1.0  0.4233090354455035  0.29938890380984096  0.34344186958857614  1.0000
  H   H5        1.0  0.5131065817975701  0.28740107224047784  0.216334202675513  1.0000
  H   H6        1.0  0.6451699627426966  0.39985591112890373  0.2859726409586709  1.0000
  C   C10       1.0  0.06155416196107952  0.1680343911826887  0.4054739411133421  1.0000
  C   C11       1.0  0.07677461116233131  0.2526308994350739  0.27496852251495363  1.0000
  C   C12       1.0  0.08356398364810164  0.18925742927815414  0.14446026411588783  1.0000
  C   C13       1.0  0.07523036798428423  0.03899422772065653  0.14112067851883192  1.0000
  C   C14       1.0  0.061586171630567454  0.9534371738888401  0.27117180610375397  1.0000
  C   C15       1.0  0.05604168452932967  0.015349006261871518  0.40407145344560336  1.0000
  N   N3        1.0  0.08125240761256398  0.9706085593432466  0.007918510648399432  1.0000
  C   C16       1.0  0.09562731160394633  0.04971687135422021  0.8670694906753762  1.0000
  H   H7        1.0  0.08076000580714648  0.4280969168660836  0.6424115063121938  1.0000
  H   H8        1.0  0.0813349663764264  0.3692876437453325  0.27319502316419386  1.0000
  H   H9        1.0  0.09447904609255375  0.2587021499320348  0.04641844512257709  1.0000
  H   H10       1.0  0.05735089283144786  0.8370601667771979  0.26889762283717755  1.0000
  H   H11       1.0  0.09036384901434324  0.8808922049692383  0.7555738003771667  1.0000
  H   H12       1.0  0.07493331264954657  0.8582217059049038  0.010915250338738188  1.0000
  H   H13       1.0  0.04002019215810537  0.1285644214179984  0.8420277366508062  1.0000
  H   H14       1.0  0.16044003001095142  0.10720171113395537  0.86726220296539  1.0000
  H   H15       1.0  0.0975558079691467  0.973022238346473  0.7816260100739167  1.0000
  C   C17       1.0  0.057166931752057545  0.5953832761336526  0.980951256888797  1.0000
  C   C18       1.0  0.12006204286225292  0.6804571510697732  0.04750750457780748  1.0000
  C   C19       1.0  0.18705167506537668  0.7536427578724343  0.9665795068024136  1.0000
  C   C20       1.0  0.1916904508185141  0.7420861721889392  0.8176183837225284  1.0000
  C   C21       1.0  0.12906194657678166  0.6601901677825948  0.7493541347105167  1.0000
  C   C22       1.0  0.0604289253775383  0.5880001007406357  0.828594106329998  1.0000
  N   N4        1.0  0.2509760608474321  0.8385148905590964  0.03614069454113465  1.0000
  H   H16       1.0  0.9251556879446202  0.31349167827373714  0.10742137742971568  1.0000
  H   H17       1.0  0.11840569586953363  0.6873011711985684  0.16351730733888067  1.0000
  H   H18       1.0  0.24341678925196975  0.7977747851826443  0.7539630533831937  1.0000
  H   H19       1.0  0.13308098643226995  0.6561730873199678  0.6331852522686363  1.0000
  H   H20       1.0  0.9687360805347716  0.40253099419435445  0.5628770738219839  1.0000
  H   H21       1.0  0.24831694691802908  0.8475647127103572  0.14749725412515863  1.0000
  H   H22       1.0  0.30141733834990614  0.893070272025366  0.9767767280693405  1.0000
  Zn  Zn1       1.0  0.9606818696280336  0.5917916000053907  0.40483560078194003  1.0000
  Zn  Zn2       1.0  0.15690542361066165  0.5915911357958571  0.4047091080302385  1.0000
  C   C23       1.0  0.059847737779819894  0.5836482707234465  0.6683809741073663  1.0000
  C   C24       1.0  0.057741686916332725  0.599736281997961  0.14116387196591806  1.0000
  C   C25       1.0  0.05705693334739691  0.8552386213295528  0.39858528129495663  1.0000
  C   C26       1.0  0.06053243596425139  0.32814419744936135  0.41095964463660645  1.0000
  O   O1        1.0  0.13240043705666116  0.6011148213343023  0.1948846962243218  1.0000
  O   O2        1.0  0.13411813029024544  0.5821164989351723  0.6145637311176657  1.0000
  O   O3        1.0  0.13186352235687862  0.8014291297325102  0.3967017984864189  1.0000
  O   O4        1.0  0.1346549775486352  0.38180220186844616  0.4127465206676104  1.0000
  O   O5        1.0  0.9829322487285522  0.801580534002847  0.39679818818014007  1.0000
  O   O6        1.0  0.9851868450849148  0.5822696372180485  0.6146600409886798  1.0000
  O   O7        1.0  0.98346914556032  0.6012679244562702  0.19497927096874879  1.0000
  O   O8        1.0  0.9857236865321782  0.3819552937289774  0.41284120363556764  1.0000
