data_image0
_chemical_formula_structural       NC10NC5H10C6SCOC6H10C7OC3NC3H11Zn2C4O8
_chemical_formula_sum              "N3 C45 H31 S1 O10 Zn2"
_cell_length_a       19.4436361288709
_cell_length_b       10.302038109246572
_cell_length_c       10.29874937815843
_cell_angle_alpha    85.56336078908822
_cell_angle_beta     89.71352480550038
_cell_angle_gamma    89.43651638143119

_space_group_name_H-M_alt    "P 1"
_space_group_IT_number       1

loop_
  _space_group_symop_operation_xyz
  'x, y, z'

loop_
  _atom_site_type_symbol
  _atom_site_label
  _atom_site_symmetry_multiplicity
  _atom_site_fract_x
  _atom_site_fract_y
  _atom_site_fract_z
  _atom_site_occupancy
  N   N1        1.0  0.647764347751525  0.40908863945961577  0.5621780162007173  1.0000
  C   C1        1.0  0.5889321254161093  0.41898434316301225  0.5765646786476333  1.0000
  C   C2        1.0  0.5156074797889975  0.4313255981817396  0.5945603522356868  1.0000
  C   C3        1.0  0.4734048566085923  0.39936134165366566  0.49987380380303637  1.0000
  C   C4        1.0  0.3975026810516759  0.40979567490910357  0.5052038743052016  1.0000
  C   C5        1.0  0.3577743422469002  0.38502577782360015  0.612281829361051  1.0000
  C   C6        1.0  0.2816526256598836  0.3889448335453682  0.5993219174395841  1.0000
  C   C7        1.0  0.2411124781024637  0.44656743475125416  0.6931091154993774  1.0000
  C   C8        1.0  0.16944820463428106  0.45020706015696765  0.682564847675357  1.0000
  C   C9        1.0  0.137329297347765  0.3958280949254327  0.57851987463076  1.0000
  C   C10       1.0  0.0635357675993105  0.3995289892845164  0.567820320531262  1.0000
  N   N2        1.0  0.0042107748172657035  0.40250431411108567  0.5592185884106566  1.0000
  C   C11       1.0  0.1771444900010516  0.3374984761267339  0.48511584014838927  1.0000
  C   C12       1.0  0.2488251482024688  0.3338047060672513  0.4954083009951449  1.0000
  C   C13       1.0  0.38591876988528817  0.3445405497893752  0.7433817234088518  1.0000
  C   C14       1.0  0.44459614091977334  0.3876394476500329  0.7906346217524783  1.0000
  C   C15       1.0  0.4888094285794409  0.4854931314166433  0.7162752483366617  1.0000
  H   H1        1.0  0.4954864064357518  0.3702750883919421  0.4095549612287477  1.0000
  H   H2        1.0  0.3727949735118491  0.4323092595407987  0.41204086266612583  1.0000
  H   H3        1.0  0.26500142812294397  0.4898264780235499  0.773970746248696  1.0000
  H   H4        1.0  0.13912111683612213  0.49549141325599844  0.7554986324974398  1.0000
  H   H5        1.0  0.1527837367345006  0.29443495452399926  0.40458874985050763  1.0000
  H   H6        1.0  0.27848634385224413  0.28627733186349996  0.423170578044201  1.0000
  H   H7        1.0  0.3549515969685194  0.28032239137856196  0.8076246656312026  1.0000
  H   H8        1.0  0.4597540920516545  0.3535548846155534  0.8885724219321486  1.0000
  H   H9        1.0  0.4587119886868789  0.5761917406972246  0.6910345522430141  1.0000
  H   H10       1.0  0.5321075924347984  0.5110562824974709  0.7793694023269805  1.0000
  C   C16       1.0  0.8259257052581507  0.024519189003999298  0.5606586776645619  1.0000
  C   C17       1.0  0.7671218140233068  0.030381175866839968  0.48162098989395624  1.0000
  C   C18       1.0  0.7381869202591743  0.9163334089685434  0.44180847475933827  1.0000
  C   C19       1.0  0.7673430301125727  0.7952444954018412  0.48156514280318796  1.0000
  C   C20       1.0  0.8260560171738611  0.7870636722720973  0.560749177433665  1.0000
  C   C21       1.0  0.8550799565591864  0.9023591755991837  0.5998000022554135  1.0000
  S   S1        1.0  0.6635455141287702  0.9252551221447357  0.339810924381611  1.0000
  C   C22       1.0  0.7140991972990869  0.932827158006275  0.19295756862348368  1.0000
  O   O1        1.0  0.730679169630773  0.8272567600933647  0.1464661754584995  1.0000
  C   C23       1.0  0.7367768771806683  0.058579525416361244  0.12726651726410254  1.0000
  C   C24       1.0  0.7853959384714309  0.060028585213020014  0.025348241302318726  1.0000
  C   C25       1.0  0.8074955273653965  0.1779613344254458  0.9634367489390075  1.0000
  C   C26       1.0  0.7813480074569347  0.2956782517253549  0.002158172738987214  1.0000
  C   C27       1.0  0.7329356774515317  0.2956980615849507  0.10272158048608059  1.0000
  C   C28       1.0  0.7106068654556166  0.17807315937563906  0.1649551740510724  1.0000
  H   H11       1.0  0.9366845124831494  0.2207755157547293  0.709804891142815  1.0000
  H   H12       1.0  0.7437194259366234  0.12333797507574462  0.45053699752621745  1.0000
  H   H13       1.0  0.7441621794527181  0.7079237068974251  0.44999074116086035  1.0000
  H   H14       1.0  0.9004139097781202  0.8969196771430988  0.6607294621803019  1.0000
  H   H15       1.0  0.848498602184872  0.4566366101556805  0.590531813776167  1.0000
  H   H16       1.0  0.8066692294224217  0.9700735786975325  0.9938715525125482  1.0000
  H   H17       1.0  0.8450071203748355  0.17802800286529516  0.8854215180594229  1.0000
  H   H18       1.0  0.7985355854903265  0.3868689586802554  0.9541373733761991  1.0000
  H   H19       1.0  0.7125636408952553  0.3870194464629746  0.13242999240347997  1.0000
  H   H20       1.0  0.6726922818808407  0.18140173268525173  0.24184132257315927  1.0000
  C   C29       1.0  0.8259591329203615  0.40582000872350754  0.1793031241241252  1.0000
  C   C30       1.0  0.8635480389745563  0.521962544521934  0.16898538947956077  1.0000
  C   C31       1.0  0.8818652999277113  0.5815056969487999  0.046535174301840725  1.0000
  C   C32       1.0  0.8635507807845746  0.5220113436464808  0.9337413431604425  1.0000
  C   C33       1.0  0.826022546291735  0.4057628183704314  0.9421047006609231  1.0000
  C   C34       1.0  0.8073069047891717  0.34858829074405384  0.06530722274412959  1.0000
  C   C35       1.0  0.9221165424495605  0.7035008450736426  0.035535593087427486  1.0000
  O   O2        1.0  0.9650955822403658  0.7210453560008518  0.9438340499949218  1.0000
  C   C36       1.0  0.9136118589270611  0.8055844404899367  0.12850812766034037  1.0000
  C   C37       1.0  0.8492710270575151  0.8293415759259798  0.18574929190570155  1.0000
  C   C38       1.0  0.8415942205435941  0.9269621550088701  0.27252500695913273  1.0000
  N   N3        1.0  0.7761156073658095  0.9500181034674182  0.3307434163536518  1.0000
  C   C39       1.0  0.8983609939556727  0.002146474535477332  0.3014605314163106  1.0000
  C   C40       1.0  0.9621601713250395  0.9803495305298003  0.24376476426703397  1.0000
  C   C41       1.0  0.9697973950329574  0.8830412787976363  0.15736621989619892  1.0000
  H   H21       1.0  0.7558459555456898  0.18533751766037374  0.4062312919031952  1.0000
  H   H22       1.0  0.8792628562250141  0.5655076080844297  0.2564063319383618  1.0000
  H   H23       1.0  0.8780637234777311  0.5672543629271509  0.8392200019819627  1.0000
  H   H24       1.0  0.7783359152044702  0.25906090060909603  0.07250851668932135  1.0000
  H   H25       1.0  0.7553620028417457  0.18586928875866054  0.7506208684433333  1.0000
  H   H26       1.0  0.8048836304144841  0.7731678786178422  0.16206797559261332  1.0000
  H   H27       1.0  0.7334570682189008  0.8945474718570707  0.30986282789022823  1.0000
  H   H28       1.0  0.7698262404418744  0.02263536566491275  0.3952920619025053  1.0000
  H   H29       1.0  0.8930889559656549  0.07784016470130428  0.36824644431057485  1.0000
  H   H30       1.0  0.00581322571049925  0.0389960220016734  0.2660458286982499  1.0000
  H   H31       1.0  0.0197609352546797  0.8674771454197164  0.11394917969350994  1.0000
  Zn  Zn1       1.0  0.7506270882347977  0.4071850742953728  0.5613315016230116  1.0000
  Zn  Zn2       1.0  0.9013480249254611  0.4043972733419852  0.560075783802678  1.0000
  C   C42       1.0  0.8260081565048815  0.40060124103080336  0.7979182704972049  1.0000
  C   C43       1.0  0.8259686028138276  0.41098271437992934  0.3234891288875581  1.0000
  C   C44       1.0  0.8260273956480632  0.6429269775156259  0.555556474182497  1.0000
  C   C45       1.0  0.825949311979354  0.1686554189137457  0.5658509946900931  1.0000
  O   O3        1.0  0.8831695900141118  0.41165174524779524  0.37140273020094283  1.0000
  O   O4        1.0  0.8832008726092835  0.3978153542857008  0.7490512344200264  1.0000
  O   O5        1.0  0.8832156375191816  0.5934964652849493  0.553342375730214  1.0000
  O   O6        1.0  0.8831547736668566  0.2159706444951213  0.5671114919375417  1.0000
  O   O7        1.0  0.7688202880597436  0.5956117040949904  0.5542957939098305  1.0000
  O   O8        1.0  0.7688055234074784  0.3999321530298564  0.7500045835334992  1.0000
  O   O9        1.0  0.7687742407204669  0.4137684988630461  0.37235451777747763  1.0000
  O   O10       1.0  0.7687594243769095  0.2180873888165515  0.5680633768889736  1.0000
