data_image0
_chemical_formula_structural       NC8NH4C12H8C7NC4H8Zn2C4O8
_chemical_formula_sum              "N3 C35 H20 Zn2 O8"
_cell_length_a       14.927258825633057
_cell_length_b       14.994056859933256
_cell_length_c       12.588827829612491
_cell_angle_alpha    92.4324788511145
_cell_angle_beta     91.15413518023296
_cell_angle_gamma    89.97996473582496

_space_group_name_H-M_alt    "P 1"
_space_group_IT_number       1

loop_
  _space_group_symop_operation_xyz
  'x, y, z'

loop_
  _atom_site_type_symbol
  _atom_site_label
  _atom_site_symmetry_multiplicity
  _atom_site_fract_x
  _atom_site_fract_y
  _atom_site_fract_z
  _atom_site_occupancy
  N   N1        1.0  0.823401036202767  0.8587293798222112  0.8305054560047819  1.0000
  C   C1        1.0  0.7458746119812568  0.8587293641729866  0.8305054631011077  1.0000
  C   C2        1.0  0.6494419709225249  0.8587293680674547  0.8305055036270997  1.0000
  C   C3        1.0  0.6012893320687946  0.7974606360220016  0.7644629660158165  1.0000
  C   C4        1.0  0.5075780201770702  0.7974605783466137  0.7644629450554135  1.0000
  C   C5        1.0  0.4616259724071552  0.858729394385309  0.8305054390258046  1.0000
  C   C6        1.0  0.5097786099145364  0.919998124818889  0.8965478971271214  1.0000
  C   C7        1.0  0.6034899887978715  0.9199981824928797  0.8965479180918825  1.0000
  C   C8        1.0  0.36519332999929416  0.8587293299341183  0.8305053985860588  1.0000
  N   N2        1.0  0.2876669057805642  0.8587293810186793  0.8305054071381557  1.0000
  H   H1        1.0  0.6361293497158471  0.7497899869006589  0.7130781791219609  1.0000
  H   H2        1.0  0.47102569505073466  0.7497899794467352  0.7130782506545192  1.0000
  H   H3        1.0  0.47493859226748386  0.9676687739402313  0.9479326840209765  1.0000
  H   H4        1.0  0.6400422482789457  0.9676687830060288  0.9479326919983857  1.0000
  C   C9        1.0  0.05562123216622572  0.5967577393873518  0.830429573994264  1.0000
  C   C10       1.0  0.09579546863849497  0.5461630658671318  0.7477906234773315  1.0000
  C   C11       1.0  0.09578764427968922  0.4529443116080367  0.7478498216525519  1.0000
  C   C12       1.0  0.055552951135198626  0.40826203759630364  0.830473901019211  1.0000
  C   C13       1.0  0.01536303380844139  0.45895413021589726  0.913055131205794  1.0000
  C   C14       1.0  0.015436035668008776  0.5521781099363227  0.9130431797986592  1.0000
  C   C15       1.0  0.05550555473020569  0.30918984910874925  0.8305198498856192  1.0000
  C   C16       1.0  0.9791150504203449  0.2626653419567489  0.861091529127341  1.0000
  C   C17       1.0  0.9790643798370192  0.16944440509386152  0.8610890839777803  1.0000
  C   C18       1.0  0.055455472134233956  0.12069508088057675  0.8305905045992112  1.0000
  C   C19       1.0  0.1318276520114008  0.16711851766067767  0.8000740795675407  1.0000
  C   C20       1.0  0.1318518326187097  0.26034000573698884  0.7999918149585105  1.0000
  H   H5        1.0  0.12709744254698507  0.5785687016373514  0.6828199359615108  1.0000
  H   H6        1.0  0.12625950123363738  0.41576843534276986  0.6823969810983741  1.0000
  H   H7        1.0  0.9848597667617129  0.42653303891588756  0.9785376689630739  1.0000
  H   H8        1.0  0.9841617693834016  0.5892713002634183  0.9779930759378392  1.0000
  H   H9        1.0  0.918873015252242  0.29832435904051585  0.8836850145669859  1.0000
  H   H10       1.0  0.9190607959065603  0.1355763585881492  0.8847390330682174  1.0000
  H   H11       1.0  0.19180847692719016  0.1314879546065783  0.7764523180502426  1.0000
  H   H12       1.0  0.19212458911181862  0.2942778669324442  0.7773675176768722  1.0000
  C   C21       1.0  0.05025854397026229  0.8274211186979588  0.5190788812488005  1.0000
  C   C22       1.0  0.08130127981521507  0.739122835951528  0.5071902630264641  1.0000
  C   C23       1.0  0.11669027840364987  0.7075800647343754  0.41082360595613293  1.0000
  C   C24       1.0  0.12111666694245994  0.7634562744838751  0.3251740073559435  1.0000
  C   C25       1.0  0.08908535617816815  0.8513943076402588  0.3348975198879214  1.0000
  C   C26       1.0  0.05492833771073036  0.8833881390371547  0.4323845181015733  1.0000
  C   C27       1.0  0.09577634787524936  0.9118377912665554  0.24561620600204093  1.0000
  N   N3        1.0  0.14041146076460076  0.9903785066460383  0.2642043901652962  1.0000
  C   C28       1.0  0.15453463976499182  0.04863362240583058  0.18661503517449263  1.0000
  C   C29       1.0  0.12375130766258935  0.028652881615831127  0.08324888516502083  1.0000
  C   C30       1.0  0.0769722879784056  0.9493872049469001  0.0610413621700592  1.0000
  C   C31       1.0  0.06081815883548902  0.8900316555347677  0.14194117874198023  1.0000
  H   H13       1.0  0.9840240448396375  0.8271259098551821  0.7773525061358788  1.0000
  H   H14       1.0  0.07865479806538289  0.6944731129838548  0.572429957050497  1.0000
  H   H15       1.0  0.1410811380359398  0.6396949150802241  0.4026469823381999  1.0000
  H   H16       1.0  0.14977255803518363  0.738322948815222  0.2514224168720085  1.0000
  H   H17       1.0  0.0314855571423518  0.9517253021380033  0.44009620289118023  1.0000
  H   H18       1.0  0.19039162480106286  0.11020144554446915  0.20515791589781127  1.0000
  H   H19       1.0  0.13525335583611509  0.07465829255239931  0.020963219892948585  1.0000
  H   H20       1.0  0.9604528638309848  0.7208708677185943  0.9930165446149158  1.0000
  Zn  Zn1       1.0  0.957378250777252  0.8587276012189636  0.8305115717120038  1.0000
  Zn  Zn2       1.0  0.15368985425631498  0.8587247113485817  0.8305079977284948  1.0000
  C   C32       1.0  0.05882128025404065  0.8746430041947526  0.024205773432917858  1.0000
  C   C33       1.0  0.05224896990467842  0.8428104444143228  0.6368139004051168  1.0000
  C   C34       1.0  0.05541053528795593  0.021234934300495417  0.8263339508850346  1.0000
  C   C35       1.0  0.05565964918101818  0.6962174481812863  0.8346857791662758  1.0000
  O   O1        1.0  0.12741620669622877  0.8479702540741818  0.6763254908532677  1.0000
  O   O2        1.0  0.13265000319908068  0.8694802975058886  0.9846911649194336  1.0000
  O   O3        1.0  0.12989479791408054  0.9878552458372062  0.8249082685392071  1.0000
  O   O4        1.0  0.13017134364326877  0.7295953041323863  0.8361083077191691  1.0000
  O   O5        1.0  0.9808966943986874  0.9878570084365556  0.8249112617169705  1.0000
  O   O6        1.0  0.9836518983818213  0.8694831262339273  0.9846941018795635  1.0000
  O   O7        1.0  0.9784180803318232  0.8479729235446664  0.6763271527423842  1.0000
  O   O8        1.0  0.9811732186252125  0.7295979752147457  0.8361100491182523  1.0000
