data_image0
_chemical_formula_structural       NC9NC4H8C7OCH9C6NO2H3Zn2C4O8
_chemical_formula_sum              "N3 C31 H20 O11 Zn2"
_cell_length_a       16.32274767691083
_cell_length_b       10.30083208314754
_cell_length_c       9.273395971720358
_cell_angle_alpha    84.94403115029091
_cell_angle_beta     89.35243876569035
_cell_angle_gamma    89.51862078510035

_space_group_name_H-M_alt    "P 1"
_space_group_IT_number       1

loop_
  _space_group_symop_operation_xyz
  'x, y, z'

loop_
  _atom_site_type_symbol
  _atom_site_label
  _atom_site_symmetry_multiplicity
  _atom_site_fract_x
  _atom_site_fract_y
  _atom_site_fract_z
  _atom_site_occupancy
  N   N1        1.0  0.7731594587404756  0.4269549170543923  0.39522406741100946  1.0000
  C   C1        1.0  0.7209018225578037  0.38008564418483015  0.3348877954704942  1.0000
  C   C2        1.0  0.6559449507255926  0.3218736425035935  0.25994966324948754  1.0000
  C   C3        1.0  0.667630065427499  0.24225005749503925  0.15744286243009653  1.0000
  C   C4        1.0  0.5883290412205674  0.20339328860644934  0.10742295237107899  1.0000
  C   C5        1.0  0.5293014869959717  0.26025919587086066  0.18063427017518457  1.0000
  C   C6        1.0  0.4393889795936496  0.24523001089959573  0.16128909924488632  1.0000
  C   C7        1.0  0.3836828899543331  0.311510975511476  0.24661339949821867  1.0000
  C   C8        1.0  0.2989957231684025  0.29866631455550485  0.23007979040848792  1.0000
  C   C9        1.0  0.2428743222691921  0.3669848859275775  0.31802626330926953  1.0000
  N   N2        1.0  0.19777167653251018  0.421901779203359  0.38872033195746014  1.0000
  C   C10       1.0  0.2689617851168512  0.21943348575782662  0.1280845826860828  1.0000
  C   C11       1.0  0.32334581002598356  0.153240311566043  0.04287368009081094  1.0000
  C   C12       1.0  0.40787475597298517  0.16573899835897699  0.058961776081438044  1.0000
  C   C13       1.0  0.5669176869437303  0.3431760288228074  0.28737782739720985  1.0000
  H   H1        1.0  0.726589078235206  0.21128822353971  0.11758029150580794  1.0000
  H   H2        1.0  0.5801420031840256  0.13831703374348736  0.023644066465622563  1.0000
  H   H3        1.0  0.4056924291710085  0.3733655545388123  0.3262379723234077  1.0000
  H   H4        1.0  0.2035876291105966  0.2088521436896942  0.11446456788203528  1.0000
  H   H5        1.0  0.2999392912687503  0.09194633016223498  0.9639710464572588  1.0000
  H   H6        1.0  0.4477440980610466  0.11278871573144866  0.990798977392227  1.0000
  H   H7        1.0  0.5500201203476093  0.3073756781309376  0.40022451895944533  1.0000
  H   H8        1.0  0.5501587564052982  0.4474626298666862  0.2626998759995287  1.0000
  C   C14       1.0  0.9854921998767499  0.04308984661677506  0.3921232817407354  1.0000
  C   C15       1.0  0.9628464340909076  0.05415173086071579  0.2458816219348283  1.0000
  C   C16       1.0  0.9504868825852164  0.9425818605403654  0.1726936864869737  1.0000
  C   C17       1.0  0.9627877085966543  0.8188970790747205  0.2455010886561934  1.0000
  C   C18       1.0  0.985446799880588  0.8057566042261111  0.39183351869728145  1.0000
  C   C19       1.0  0.9964738746117692  0.9184017057539191  0.4643716844358645  1.0000
  C   C20       1.0  0.9286066783128956  0.9555969775692816  0.015119823327350393  1.0000
  O   O1        1.0  0.0014681381765828587  0.9614209000887846  0.9314754767536995  1.0000
  C   C21       1.0  0.9817532371008056  0.9736792254578479  0.7832518212431665  1.0000
  H   H9        1.0  0.9547445659333346  0.14947558535201533  0.1882931881128462  1.0000
  H   H10       1.0  0.9546447808109289  0.7330764687153902  0.1876514301695466  1.0000
  H   H11       1.0  0.01394623488169943  0.9091074032983615  0.5771552378513458  1.0000
  H   H12       1.0  0.029090566675894707  0.5737419688117249  0.6674245483834065  1.0000
  H   H13       1.0  0.8909112490801536  0.04554352233758108  0.9915630913833636  1.0000
  H   H14       1.0  0.8909445068267691  0.8704567703599376  0.9912315573471306  1.0000
  H   H15       1.0  0.03954178191589409  0.9781253185784868  0.7189570061714536  1.0000
  H   H16       1.0  0.9468879448665484  0.06528511797139668  0.75368054486882  1.0000
  H   H17       1.0  0.9469025759876162  0.8878062900779862  0.7533225789840388  1.0000
  C   C22       1.0  0.985935499624667  0.42840699476804356  0.9680330161627183  1.0000
  C   C23       1.0  0.9129089645776121  0.45891587399580774  0.03972696276823795  1.0000
  C   C24       1.0  0.8396538256762293  0.47714865085350033  0.9644129650848341  1.0000
  C   C25       1.0  0.8373469971718094  0.4652459869613801  0.8151582046317603  1.0000
  C   C26       1.0  0.910329616299236  0.4369627280017794  0.7420264052061079  1.0000
  C   C27       1.0  0.9850034517708477  0.42043945552135553  0.8159237803091596  1.0000
  N   N3        1.0  0.7613921310024557  0.48307813314565823  0.738177638635815  1.0000
  O   O2        1.0  0.6901885729365015  0.5118332857040804  0.8100322165609035  1.0000
  O   O3        1.0  0.7587834768777527  0.47240742717236417  0.6052261291785488  1.0000
  H   H18       1.0  0.16522582438699507  0.280794862520499  0.08176421797407028  1.0000
  H   H19       1.0  0.7845123841744627  0.4993376176749751  0.02363233942026843  1.0000
  H   H20       1.0  0.10724719824627059  0.3248369425152915  0.5426379785340036  1.0000
  Zn  Zn1       1.0  0.8956933699166868  0.4254931269812903  0.3933555684678869  1.0000
  Zn  Zn2       1.0  0.07523775916295428  0.42335280202231607  0.3906006618996385  1.0000
  C   C28       1.0  0.9851781255225859  0.41677225149187547  0.6556562452828559  1.0000
  C   C29       1.0  0.9857549639228521  0.43207529129628597  0.1283000960755496  1.0000
  C   C30       1.0  0.9854574664199108  0.6616504649632764  0.3861353992890239  1.0000
  C   C31       1.0  0.9854755617678994  0.1871955176543476  0.39782102057076707  1.0000
  O   O4        1.0  0.05383053484505962  0.43248849766627934  0.18104172161945128  1.0000
  O   O5        1.0  0.053372592179091946  0.41473361226291594  0.6008232941874594  1.0000
  O   O6        1.0  0.053597243328306295  0.6124758633921399  0.3831833177233628  1.0000
  O   O7        1.0  0.053605822547940774  0.23474625757405468  0.3986815907743957  1.0000
  O   O8        1.0  0.91732524526202  0.6140996721614247  0.3852746405256497  1.0000
  O   O9        1.0  0.9171005941007538  0.4163589819346116  0.6029145394208815  1.0000
  O   O10       1.0  0.9175585387318598  0.4341138383953275  0.1831312311520119  1.0000
  O   O11       1.0  0.9173338263129649  0.23637158799797692  0.400771208548629  1.0000
