data_image0
_chemical_formula_structural       NC8NC6H8C7H8C7NH5Zn2C4O8
_chemical_formula_sum              "N3 C32 H21 Zn2 O8"
_cell_length_a       17.457602349358154
_cell_length_b       9.274341958901593
_cell_length_c       10.302823150593488
_cell_angle_alpha    85.52847871026538
_cell_angle_beta     92.87590926728866
_cell_angle_gamma    91.07026823974832

_space_group_name_H-M_alt    "P 1"
_space_group_IT_number       1

loop_
  _space_group_symop_operation_xyz
  'x, y, z'

loop_
  _atom_site_type_symbol
  _atom_site_label
  _atom_site_symmetry_multiplicity
  _atom_site_fract_x
  _atom_site_fract_y
  _atom_site_fract_z
  _atom_site_occupancy
  N   N1        1.0  0.7131356903361912  0.6131633024460743  0.6253555583366163  1.0000
  C   C1        1.0  0.6523513988723557  0.5621700277608008  0.6147932607469603  1.0000
  C   C2        1.0  0.5767331207211117  0.49874073902053917  0.6016632952612174  1.0000
  C   C3        1.0  0.5179477016231369  0.5433344789043928  0.6764935297744028  1.0000
  C   C4        1.0  0.4437539622499681  0.4822572125848636  0.6639754986721782  1.0000
  C   C5        1.0  0.3813633043848196  0.5293416335442696  0.743223694553985  1.0000
  C   C6        1.0  0.3066985547531611  0.5498482547507226  0.6874576592164949  1.0000
  C   C7        1.0  0.24791430881625032  0.5942377717765309  0.7623960138586731  1.0000
  C   C8        1.0  0.17180753006922111  0.6154171104531967  0.7044145566568288  1.0000
  N   N2        1.0  0.1106306372551127  0.6324382150193761  0.6577976230226594  1.0000
  C   C9        1.0  0.2633010951892353  0.6183906397455945  0.8936084957313902  1.0000
  C   C10       1.0  0.33717865366959193  0.5983159309585473  0.9497615826469665  1.0000
  C   C11       1.0  0.3959501434413565  0.554126337051795  0.8752806084382503  1.0000
  C   C12       1.0  0.4296386191507939  0.3758340337297583  0.5751955045234112  1.0000
  C   C13       1.0  0.4884105382523655  0.33154972663163296  0.5007648431436741  1.0000
  C   C14       1.0  0.5618187934538001  0.3927517684346329  0.5138325278322071  1.0000
  H   H1        1.0  0.5298109567726785  0.6268267329888972  0.7430212106600325  1.0000
  H   H2        1.0  0.2944492710890618  0.5332261828858542  0.5854817231334531  1.0000
  H   H3        1.0  0.2182426623877367  0.6526813382009098  0.9523920776249235  1.0000
  H   H4        1.0  0.3489042667661736  0.6166675600699317  0.05136267771023096  1.0000
  H   H5        1.0  0.45253161456415786  0.5374799891078752  0.9213888457067653  1.0000
  H   H6        1.0  0.3734438354270413  0.3254955002126831  0.5645964585141441  1.0000
  H   H7        1.0  0.47705395433130027  0.24929714439153883  0.4330380021674666  1.0000
  H   H8        1.0  0.6068828309395778  0.3574953950896332  0.4555608577343835  1.0000
  C   C15       1.0  0.9143252764712172  0.19934343671180013  0.641998324000886  1.0000
  C   C16       1.0  0.9233917494410264  0.28312795662642065  0.5238647736787065  1.0000
  C   C17       1.0  0.9248275609401669  0.2182433794748655  0.4063687047490261  1.0000
  C   C18       1.0  0.9163896196937722  0.06820394466704681  0.4041120974484851  1.0000
  C   C19       1.0  0.9097124019003928  0.9829274043468835  0.521479990034611  1.0000
  C   C20       1.0  0.9094484268545293  0.04624729011316297  0.6411667228624258  1.0000
  C   C21       1.0  0.9196301543801496  0.9983696396195233  0.2779862870398093  1.0000
  H   H9        1.0  0.8505049556889888  0.2744064545373565  0.937581775485515  1.0000
  H   H10       1.0  0.9277386325789166  0.39994647506217285  0.521988008221598  1.0000
  H   H11       1.0  0.9317116401274166  0.2854534737676635  0.3167962378550093  1.0000
  H   H12       1.0  0.9064696818959304  0.8662662235045017  0.519557861644563  1.0000
  H   H13       1.0  0.8695315090574989  0.7467179066194686  0.8421191946381057  1.0000
  H   H14       1.0  0.979947025868908  0.9717474801118356  0.26164240005369216  1.0000
  H   H15       1.0  0.8972640154022073  0.07210236044499196  0.1951402809153029  1.0000
  H   H16       1.0  0.8842441508983787  0.8974817261748713  0.28029127713082147  1.0000
  C   C22       1.0  0.9118868705033296  0.6227953918052644  0.2603344316314285  1.0000
  C   C23       1.0  0.8314522524881952  0.629349671660561  0.2519348485487549  1.0000
  C   C24       1.0  0.791435272516014  0.6326103692977736  0.1306534691564163  1.0000
  C   C25       1.0  0.8314522381161754  0.6293495767773756  0.016633853575425572  1.0000
  C   C26       1.0  0.9118868700885007  0.6227953842915757  0.0228305982163346  1.0000
  C   C27       1.0  0.9516839166067615  0.6195524565104813  0.14519343914139052  1.0000
  C   C28       1.0  0.708978025344364  0.6393292346200616  0.12317176310756663  1.0000
  N   N3        1.0  0.6427093396619235  0.6447291834094744  0.11715888115974017  1.0000
  H   H17       1.0  0.9423538294250613  0.6203131268477498  0.5908382451339329  1.0000
  H   H18       1.0  0.7997298630885746  0.6319345948363887  0.3394807983424517  1.0000
  H   H19       1.0  0.7997298941193995  0.6319344901382808  0.9233312644316928  1.0000
  H   H20       1.0  0.013712196590556006  0.6144980565501565  0.1508215520474927  1.0000
  H   H21       1.0  0.9423538050601742  0.6203128941196211  0.6978555429562743  1.0000
  Zn  Zn1       1.0  0.8278441679538044  0.6187217587934852  0.6347251373077772  1.0000
  Zn  Zn2       1.0  0.9959222134687609  0.6268679357388627  0.6484386848197295  1.0000
  C   C29       1.0  0.9119182224361403  0.617050621615632  0.8787079869100817  1.0000
  C   C30       1.0  0.9118499839162264  0.6285409813333106  0.40445611060835335  1.0000
  C   C31       1.0  0.9103663220144438  0.8861642571394934  0.6361500353869614  1.0000
  C   C32       1.0  0.9134018369611038  0.35942561052933275  0.6470141283699453  1.0000
  O   O1        1.0  0.9756223829938392  0.6335543943392627  0.4580288886304041  1.0000
  O   O2        1.0  0.9757131771074294  0.6182188805750883  0.8355431014803592  1.0000
  O   O3        1.0  0.974459138041579  0.8355315029929923  0.639675767858959  1.0000
  O   O4        1.0  0.9768763646466394  0.4162417794571333  0.653896120218356  1.0000
  O   O5        1.0  0.8468899594191285  0.829347912296894  0.6292676972225598  1.0000
  O   O6        1.0  0.8481439885050005  0.6120370223807865  0.8251349599188971  1.0000
  O   O7        1.0  0.8480531947318266  0.6273724858970187  0.4476191862164962  1.0000
  O   O8        1.0  0.84930717644088  0.4100598607007936  0.6434865151513054  1.0000
