data_image0
_chemical_formula_structural       NC5NC4H6C6ClH5C6OCH7Zn2C4O8
_chemical_formula_sum              "N2 C26 H18 Cl1 O9 Zn2"
_cell_length_a       13.854160002989762
_cell_length_b       10.30297070629231
_cell_length_c       9.27389158865715
_cell_angle_alpha    86.0762958320409
_cell_angle_beta     89.68013189536481
_cell_angle_gamma    89.9983107048755

_space_group_name_H-M_alt    "P 1"
_space_group_IT_number       1

loop_
  _space_group_symop_operation_xyz
  'x, y, z'

loop_
  _atom_site_type_symbol
  _atom_site_label
  _atom_site_symmetry_multiplicity
  _atom_site_fract_x
  _atom_site_fract_y
  _atom_site_fract_z
  _atom_site_occupancy
  N   N1        1.0  0.9148194662968375  0.40791820670958473  0.4100978494507377  1.0000
  C   C1        1.0  0.8427069285240905  0.43013442858116385  0.3510587403548259  1.0000
  C   C2        1.0  0.7529979217381476  0.4577720058082604  0.2776118280470057  1.0000
  C   C3        1.0  0.6651592780026995  0.4318136769055764  0.3493262244133253  1.0000
  C   C4        1.0  0.5778555094532044  0.45777201851941407  0.27761180487734416  1.0000
  C   C5        1.0  0.48759878682025287  0.4301342967086337  0.35105883196374  1.0000
  N   N2        1.0  0.41504589570059264  0.40791814954909905  0.4100978493630886  1.0000
  C   C6        1.0  0.5784229360180393  0.5102347137431882  0.13420199107343023  1.0000
  C   C7        1.0  0.6662291909759426  0.5381277394509729  0.062384201209789485  1.0000
  C   C8        1.0  0.6668068970802534  0.590714214708711  0.9074867319803536  1.0000
  C   C9        1.0  0.7535000253910847  0.5102347118170719  0.1342019008057067  1.0000
  H   H1        1.0  0.6647454071503216  0.39110838461363295  0.4603227852744056  1.0000
  H   H2        1.0  0.5107574869342651  0.5293949617209073  0.07855924274789738  1.0000
  H   H3        1.0  0.7317487016138747  0.6518790938315164  0.8837039419726271  1.0000
  H   H4        1.0  0.6020402237119551  0.6518790960495482  0.8837040070499048  1.0000
  H   H5        1.0  0.6670761139639738  0.5086433894851728  0.8359394821898687  1.0000
  H   H6        1.0  0.8215804463332561  0.5293950622846773  0.07855915733327955  1.0000
  C   C10       1.0  0.16493726383432575  0.02667077611779557  0.41010408443129875  1.0000
  C   C11       1.0  0.2645021679177728  0.02375326766761021  0.43786699179364375  1.0000
  C   C12       1.0  0.3139036162711615  0.9053488331155847  0.45164210466819354  1.0000
  C   C13       1.0  0.2645021674004315  0.7886452984469297  0.43786692400475097  1.0000
  C   C14       1.0  0.1649372738270405  0.789155718600876  0.41010416694315877  1.0000
  C   C15       1.0  0.11564015585394814  0.9087619205721753  0.39635801325453635  1.0000
  Cl  Cl1       1.0  0.4382839037797313  0.9032076860815597  0.4863244912527992  1.0000
  H   H7        1.0  0.12743291129761447  0.3550728622205419  0.3996454764972295  1.0000
  H   H8        1.0  0.304101550445647  0.1131181671566861  0.44890885102260464  1.0000
  H   H9        1.0  0.3041015126614157  0.6979169734871852  0.4489087474638589  1.0000
  H   H10       1.0  0.03885268048822098  0.9100836641264517  0.37494638014437665  1.0000
  H   H11       1.0  0.12743290557384168  0.4620448977554325  0.39964574863476066  1.0000
  C   C16       1.0  0.16651853135480876  0.4044748412642052  0.9868287677536028  1.0000
  C   C17       1.0  0.24556441948734653  0.45931090138922115  0.05540247737882908  1.0000
  C   C18       1.0  0.3191352662247404  0.5238414428175524  0.9755927409344677  1.0000
  C   C19       1.0  0.31392330591152673  0.5338612395309159  0.8241521280507618  1.0000
  C   C20       1.0  0.23690527096238376  0.478239075596701  0.7542362206894029  1.0000
  C   C21       1.0  0.16335600536707728  0.41135156944699175  0.8333794084212794  1.0000
  O   O1        1.0  0.3955451534318086  0.5770790324758437  0.050799357995083616  1.0000
  C   C22       1.0  0.4750294027996611  0.6454045985820025  0.9837229968408118  1.0000
  H   H12       1.0  0.9369309252571204  0.3247357335383338  0.0978459827140663  1.0000
  H   H13       1.0  0.3695256021464318  0.583436906892784  0.7592299992434084  1.0000
  H   H14       1.0  0.23612644529099322  0.48493019428887885  0.6371550447257257  1.0000
  H   H15       1.0  0.010251539781239714  0.35251996182791706  0.5579367439396345  1.0000
  H   H16       1.0  0.4491197226019257  0.7332598475725111  0.9193274196947895  1.0000
  H   H17       1.0  0.5152754624084406  0.5809714927777964  0.9133103303170825  1.0000
  H   H18       1.0  0.5244386435611008  0.6764366790952904  0.06856654757367764  1.0000
  Zn  Zn1       1.0  0.05917398276132954  0.4079147820392141  0.410106182127778  1.0000
  Zn  Zn2       1.0  0.27069133618761243  0.40791104643250653  0.41010135445245344  1.0000
  C   C23       1.0  0.1639516530564497  0.40487972837274744  0.6733632287157505  1.0000
  C   C24       1.0  0.1659159751269721  0.41094773930506334  0.1468444492848282  1.0000
  C   C25       1.0  0.16495377801519948  0.6449831454171275  0.40436026779896106  1.0000
  C   C26       1.0  0.16491377770499005  0.17084276308060906  0.41584748705006386  1.0000
  O   O2        1.0  0.24598348504558593  0.4131130214381631  0.20054534169015767  1.0000
  O   O3        1.0  0.24442092175999897  0.40271062821958603  0.6196582572907088  1.0000
  O   O4        1.0  0.24522906266436917  0.5965971861990917  0.4024364631345747  1.0000
  O   O5        1.0  0.2451752723684113  0.21922647186927358  0.4177670277733341  1.0000
  O   O6        1.0  0.08468997440006709  0.5965993566050742  0.4024405088009628  1.0000
  O   O7        1.0  0.08388183377846564  0.40271435780826875  0.6196622261027159  1.0000
  O   O8        1.0  0.08544440360220971  0.41311669170784615  0.20054757752821506  1.0000
  O   O9        1.0  0.08463619051737603  0.21923013373096653  0.4177693716784151  1.0000
