data_image0
_chemical_formula_structural       NC10NC5H10C12SCH12C12NH11Zn2C4O8
_chemical_formula_sum              "N3 C44 H33 S1 Zn2 O8"
_cell_length_a       19.4436361288709
_cell_length_b       10.299776766347529
_cell_length_c       10.299774167527172
_cell_angle_alpha    85.57893362728709
_cell_angle_beta     89.69810155224394
_cell_angle_gamma    89.39962546058797

_space_group_name_H-M_alt    "P 1"
_space_group_IT_number       1

loop_
  _space_group_symop_operation_xyz
  'x, y, z'

loop_
  _atom_site_type_symbol
  _atom_site_label
  _atom_site_symmetry_multiplicity
  _atom_site_fract_x
  _atom_site_fract_y
  _atom_site_fract_z
  _atom_site_occupancy
  N   N1        1.0  0.6474918367406731  0.4088767571089542  0.562222344001313  1.0000
  C   C1        1.0  0.5886541604486072  0.41878018758638635  0.5766062039456813  1.0000
  C   C2        1.0  0.5153227052645087  0.43113109908889063  0.5945983756250325  1.0000
  C   C3        1.0  0.4731446705592265  0.39912373778921856  0.4999270115313079  1.0000
  C   C4        1.0  0.39723816690520003  0.4095625151675029  0.5052553783623241  1.0000
  C   C5        1.0  0.35750279055272505  0.38482712978272154  0.6123221507884429  1.0000
  C   C6        1.0  0.281381611705556  0.3887422236925029  0.5993635017747351  1.0000
  C   C7        1.0  0.2408082579063404  0.4464135865933716  0.693133107368676  1.0000
  C   C8        1.0  0.1691442681662543  0.4500500940384256  0.6825898227106378  1.0000
  C   C9        1.0  0.13705894443179398  0.39561926444675516  0.5785634277929521  1.0000
  C   C10       1.0  0.0632656999756742  0.3993169967184267  0.5678648705847607  1.0000
  N   N2        1.0  0.0039409365323201  0.40228977944830846  0.5592639398936456  1.0000
  C   C11       1.0  0.17690752897147463  0.33724086295555633  0.48517700655483126  1.0000
  C   C12       1.0  0.24858795831343744  0.3335501034359054  0.49546852158253474  1.0000
  C   C13       1.0  0.385642065192333  0.344381782178618  0.7434093521761785  1.0000
  C   C14       1.0  0.44429791002583807  0.3875085345910213  0.7906520039614262  1.0000
  C   C15       1.0  0.4884885876851306  0.48535709747369293  0.7162924671880979  1.0000
  H   H1        1.0  0.4952491961235527  0.3699966960533832  0.40962251488685375  1.0000
  H   H2        1.0  0.3725362541989437  0.43204629786414306  0.41210200152144333  1.0000
  H   H3        1.0  0.26467076762504477  0.48971317070832826  0.7739802015780568  1.0000
  H   H4        1.0  0.13879119585999192  0.495372477521863  0.7555098801169863  1.0000
  H   H5        1.0  0.15257310097534432  0.2941369721028282  0.40466439102926394  1.0000
  H   H6        1.0  0.2782758025497542  0.2859844367047557  0.42324465803881717  1.0000
  H   H7        1.0  0.3546874975183779  0.28017279663534317  0.8076504375779031  1.0000
  H   H8        1.0  0.459453320876203  0.35345286680828264  0.8885806996594593  1.0000
  H   H9        1.0  0.4583638751092408  0.5760674001380546  0.691046064424645  1.0000
  H   H10       1.0  0.5317689133789172  0.5109499676174488  0.7793760839468236  1.0000
  C   C16       1.0  0.8257845267611016  0.024216875276897195  0.5607410061794835  1.0000
  C   C17       1.0  0.8299091498869599  0.012619103968895429  0.6972138399603192  1.0000
  C   C18       1.0  0.8319329091586511  0.889605025215486  0.7663716190213321  1.0000
  C   C19       1.0  0.8297776333213691  0.7773337624075308  0.6972301210543648  1.0000
  C   C20       1.0  0.8256548471694163  0.7869395520379013  0.5607565226829108  1.0000
  C   C21       1.0  0.8236809852846002  0.9108197625785923  0.49327590952615896  1.0000
  C   C22       1.0  0.83628871536281  0.8783999379785693  0.9107445417157285  1.0000
  C   C23       1.0  0.7969204578733203  0.7856888244241171  0.9851102653252588  1.0000
  C   C24       1.0  0.8010404379720677  0.7753775992000996  0.12097857883211749  1.0000
  C   C25       1.0  0.844357079040771  0.8575026224223312  0.18428917483507506  1.0000
  C   C26       1.0  0.883889386187224  0.9496373221479354  0.11129508584332314  1.0000
  C   C27       1.0  0.8798702599722947  0.9602965693468791  0.9754155208153794  1.0000
  S   S1        1.0  0.8497194261389184  0.8438099625789082  0.35862628450734835  1.0000
  C   C28       1.0  0.7806040238412376  0.9611547496089847  0.37872764700332406  1.0000
  H   H11       1.0  0.824239916979399  0.3560891345401857  0.5087384369196712  1.0000
  H   H12       1.0  0.8306089121465715  0.09945285374526215  0.750163714702036  1.0000
  H   H13       1.0  0.8322707592539602  0.6822895064509319  0.7499689851777804  1.0000
  H   H14       1.0  0.8204994841742005  0.9189984530332838  0.3879929171649374  1.0000
  H   H15       1.0  0.8240495401082726  0.46314666017168077  0.5087591227119175  1.0000
  H   H16       1.0  0.762300129856393  0.7223506294999944  0.938285825789138  1.0000
  H   H17       1.0  0.7702864651254048  0.703900056679289  0.1769525316880166  1.0000
  H   H18       1.0  0.9177776026498342  0.013045390017175418  0.159714456592993  1.0000
  H   H19       1.0  0.9114922211146081  0.031389537734003436  0.9208473361025988  1.0000
  H   H20       1.0  0.7943757172463862  0.05721555483217666  0.329738135788609  1.0000
  H   H21       1.0  0.7726278139221499  0.9720125718958279  0.4840678566480757  1.0000
  H   H22       1.0  0.732208957968771  0.9265041416952737  0.3370093215528965  1.0000
  C   C29       1.0  0.8257430963503432  0.40546326509289204  0.17939646591674618  1.0000
  C   C30       1.0  0.7583907395392998  0.35740648809740133  0.1827752911324578  1.0000
  C   C31       1.0  0.7242386658655215  0.3331720007547308  0.06733975154266503  1.0000
  C   C32       1.0  0.7583434483236727  0.3576386609009147  0.9474709769614535  1.0000
  C   C33       1.0  0.8256962430196932  0.4056932033281031  0.9421010037075761  1.0000
  C   C34       1.0  0.8590187990654219  0.42933690985249795  0.05858606971207436  1.0000
  C   C35       1.0  0.6529837757921618  0.28233128267404095  0.07196770145459341  1.0000
  C   C36       1.0  0.6336707566373775  0.18423522979367696  0.16742486932494605  1.0000
  C   C37       1.0  0.5666024501648916  0.13643952869211295  0.1716470189842738  1.0000
  C   C38       1.0  0.5177862550058937  0.18586684812286428  0.08074848677277346  1.0000
  C   C39       1.0  0.5366454733537817  0.2835811299357234  0.985454442547219  1.0000
  C   C40       1.0  0.603693109901531  0.33147847390988416  0.9809661862498759  1.0000
  N   N3        1.0  0.44919095281026533  0.1369233244792163  0.08520348771849573  1.0000
  H   H23       1.0  0.8514191343128242  0.4237212154300094  0.5055664812948657  1.0000
  H   H24       1.0  0.7319877154059728  0.3403914231158201  0.27527977656984537  1.0000
  H   H25       1.0  0.7325886723158175  0.33743923961481664  0.8583539234437495  1.0000
  H   H26       1.0  0.9109781908635586  0.4664096111917613  0.055211473243469866  1.0000
  H   H27       1.0  0.8513503778574095  0.42405943281015146  0.6125972807293811  1.0000
  H   H28       1.0  0.6706753053507288  0.14328359991698836  0.2377668073002139  1.0000
  H   H29       1.0  0.5527408379650036  0.060649748587019  0.24557897462457065  1.0000
  H   H30       1.0  0.49935408151973015  0.3228727658209023  0.9148448006404075  1.0000
  H   H31       1.0  0.6167505248306452  0.40814960177940485  0.907372939283923  1.0000
  H   H32       1.0  0.41244252632151834  0.17315850306436387  0.017844613549478524  1.0000
  H   H33       1.0  0.4346478287466182  0.06409138147440663  0.1558940203038055  1.0000
  Zn  Zn1       1.0  0.7503553486121092  0.4069724285609866  0.5613761242220869  1.0000
  Zn  Zn2       1.0  0.9010774173239325  0.4041835036045167  0.5601208401715221  1.0000
  C   C41       1.0  0.825704453347784  0.40047609791019206  0.7979334521082848  1.0000
  C   C42       1.0  0.8257299581820858  0.4106814424472514  0.32356362607184214  1.0000
  C   C43       1.0  0.8256761185901976  0.6427672424173194  0.5555786551555724  1.0000
  C   C44       1.0  0.8257582417698424  0.16838873862063955  0.5659184926568099  1.0000
  O   O1        1.0  0.8829237894377361  0.41136866224656576  0.3714710681328457  1.0000
  O   O2        1.0  0.8829051849626939  0.3976711687716918  0.7490729046485602  1.0000
  O   O3        1.0  0.8828815331450431  0.593324346825469  0.5533696978581188  1.0000
  O   O4        1.0  0.882947389828555  0.21571549440526794  0.567174177981397  1.0000
  O   O5        1.0  0.7684853246734421  0.5954404387133703  0.5543227868337477  1.0000
  O   O6        1.0  0.7685089762268776  0.3997888209322119  0.7500259244134699  1.0000
  O   O7        1.0  0.7685275808512491  0.41348626867994165  0.3724225265638452  1.0000
  O   O8        1.0  0.7685511812348552  0.21783309157929923  0.5681257337758224  1.0000
