data_image0
_chemical_formula_structural       NC8NC6H8C7NC2NH8C6SCNH5Zn2C4O8
_chemical_formula_sum              "N5 C34 H21 S1 Zn2 O8"
_cell_length_a       17.457602349358154
_cell_length_b       9.273995741505848
_cell_length_c       10.302218930750287
_cell_angle_alpha    85.6945973122959
_cell_angle_beta     92.89432631333469
_cell_angle_gamma    92.2639659462817

_space_group_name_H-M_alt    "P 1"
_space_group_IT_number       1

loop_
  _space_group_symop_operation_xyz
  'x, y, z'

loop_
  _atom_site_type_symbol
  _atom_site_label
  _atom_site_symmetry_multiplicity
  _atom_site_fract_x
  _atom_site_fract_y
  _atom_site_fract_z
  _atom_site_occupancy
  N   N1        1.0  0.7309125771918253  0.6139372845977991  0.6311710827645267  1.0000
  C   C1        1.0  0.6695562580659215  0.5629286222388119  0.6204203109554662  1.0000
  C   C2        1.0  0.5932264502138316  0.4994801917658167  0.6070559076983308  1.0000
  C   C3        1.0  0.5349535199829496  0.5440763638726547  0.6820565993863473  1.0000
  C   C4        1.0  0.4600746585074071  0.48298064459604306  0.6693128344490575  1.0000
  C   C5        1.0  0.3982251579368317  0.5300675935414799  0.7487410284922089  1.0000
  C   C6        1.0  0.3237792382960443  0.5505904893229863  0.6930456302848779  1.0000
  C   C7        1.0  0.26550521840437513  0.594982351664364  0.7681537002065891  1.0000
  C   C8        1.0  0.1896243762539145  0.6161785636808778  0.7102451642097835  1.0000
  N   N2        1.0  0.1286290573037377  0.6332132320015651  0.6636868331822163  1.0000
  C   C9        1.0  0.281186513741795  0.6191212958435877  0.8994662969142582  1.0000
  C   C10       1.0  0.3548501428722064  0.5990303927989342  0.9555503686439273  1.0000
  C   C11       1.0  0.4131137269586277  0.5548384439928509  0.8809004538251998  1.0000
  C   C12       1.0  0.4447530285108498  0.37653656803240443  0.5801337595825036  1.0000
  C   C13       1.0  0.50301599252147  0.3322498657010762  0.5055338135357932  1.0000
  C   C14       1.0  0.5771108673393657  0.3934703100764391  0.518827738244587  1.0000
  H   H1        1.0  0.5477625610726345  0.6275855377281295  0.7488971030233579  1.0000
  H   H2        1.0  0.3113250924474368  0.5339799620964281  0.5909997917213565  1.0000
  H   H3        1.0  0.23652239518131515  0.653413655781536  0.9583810599029923  1.0000
  H   H4        1.0  0.366799882920447  0.6173711223915093  0.05722769574624464  1.0000
  H   H5        1.0  0.4695177186349141  0.5381787439237311  0.9269514232315097  1.0000
  H   H6        1.0  0.3879935296316224  0.32618287338518903  0.569348644506418  1.0000
  H   H7        1.0  0.4907272570470085  0.24998098247181016  0.43749860661109574  1.0000
  H   H8        1.0  0.6217698908758966  0.3582118641928058  0.4604213790307136  1.0000
  C   C15       1.0  0.9274791678345486  0.19997534171310669  0.6462931401800162  1.0000
  C   C16       1.0  0.9409328884244652  0.28388259366275714  0.5299766771743976  1.0000
  C   C17       1.0  0.9612544212790137  0.21977126025463778  0.4190915633084466  1.0000
  C   C18       1.0  0.9689701865133675  0.0696988750736165  0.4213774170723523  1.0000
  C   C19       1.0  0.9539047908163087  0.9844360879625687  0.5364865612267251  1.0000
  C   C20       1.0  0.932069743323792  0.047164343498140145  0.648576547943989  1.0000
  C   C21       1.0  0.9914426788557736  0.0038101696128489634  0.30256268030006805  1.0000
  N   N3        1.0  0.9942175377767254  0.07824825947806756  0.18481171589511902  1.0000
  C   C22       1.0  0.017222274515875442  0.9814889199311889  0.10503533600546211  1.0000
  C   C23       1.0  0.028184586957582313  0.8510946469322422  0.17485720968087734  1.0000
  N   N4        1.0  0.012004799562285614  0.8652890385660096  0.2990691522369511  1.0000
  H   H9        1.0  0.8652770079079168  0.46153215407586234  0.8280679722357224  1.0000
  H   H10       1.0  0.9375929475118204  0.40056527307609635  0.5255160649631028  1.0000
  H   H11       1.0  0.9720700604335759  0.2885096388555126  0.33177662904848226  1.0000
  H   H12       1.0  0.9565037383822463  0.8679996569146439  0.5384983189070245  1.0000
  H   H13       1.0  0.9331117519323964  0.7491492175728046  0.864572779784395  1.0000
  H   H14       1.0  0.025694726587716328  0.004937895984806316  0.0022127784343135533  1.0000
  H   H15       1.0  0.04702591186346128  0.7529025441226788  0.13790862126566705  1.0000
  H   H16       1.0  0.016188926531860433  0.7849388325688073  0.37530450262045617  1.0000
  C   C24       1.0  0.9297032685259011  0.6236339651565774  0.2661540215194036  1.0000
  C   C25       1.0  0.0016177381995348063  0.5599250707473328  0.27566077770219066  1.0000
  C   C26       1.0  0.037365722892693576  0.5277684113399848  0.16341007262341267  1.0000
  C   C27       1.0  0.0018038905540849217  0.5597554859013387  0.04052134757127756  1.0000
  C   C28       1.0  0.9298456277093072  0.6235057583928414  0.028715686709664956  1.0000
  C   C29       1.0  0.8941771362084422  0.655041572797953  0.14213095669579134  1.0000
  S   S1        1.0  0.1292998532696855  0.44701080552423034  0.1769963031400228  1.0000
  C   C30       1.0  0.088211874237901  0.26979268563495573  0.18550515135743995  1.0000
  N   N5        1.0  0.0612520570735049  0.1536167884633306  0.19108153367000777  1.0000
  H   H17       1.0  0.9023454033558113  0.6479479738105278  0.589867149518239  1.0000
  H   H18       1.0  0.030114291017247163  0.534768153432507  0.37000259946127567  1.0000
  H   H19       1.0  0.030428036948265017  0.5344822607440096  0.9546061043940783  1.0000
  H   H20       1.0  0.8387119645430708  0.7041564821691173  0.13395203766792085  1.0000
  H   H21       1.0  0.7942492966150245  0.7438091684525687  0.799239245269017  1.0000
  Zn  Zn1       1.0  0.8456849426741587  0.6194960370128759  0.6405619122664941  1.0000
  Zn  Zn2       1.0  0.013856615470897232  0.6276426508857238  0.6543066018749157  1.0000
  C   C31       1.0  0.9297858782800074  0.617783331038811  0.8845595788499641  1.0000
  C   C32       1.0  0.929757526180519  0.6293572658724169  0.41030921772569456  1.0000
  C   C33       1.0  0.931197109744759  0.8870283094100335  0.642970656593739  1.0000
  C   C34       1.0  0.9283462279525748  0.3601105516258982  0.6518981998432665  1.0000
  O   O1        1.0  0.9935959748373984  0.6343633622426619  0.46390503955991136  1.0000
  O   O2        1.0  0.9935858320818571  0.61895923794831  0.8413952817053115  1.0000
  O   O3        1.0  0.9947245592613525  0.836377921147393  0.646310451428654  1.0000
  O   O4        1.0  0.9924571903100413  0.4169446865990381  0.658989767822072  1.0000
  O   O5        1.0  0.8670843104462831  0.8301939985210929  0.6358787416221245  1.0000
  O   O6        1.0  0.8659455926412492  0.6127770484188375  0.8309635073402228  1.0000
  O   O7        1.0  0.8659557348840007  0.6281811227106683  0.45347170402343684  1.0000
  O   O8        1.0  0.8648169503157741  0.4107624367331176  0.6485565296028818  1.0000
