data_image0
_chemical_formula_structural       NC9NC5H8C12H10C7NC2NH8Zn2C4O8
_chemical_formula_sum              "N4 C39 H26 Zn2 O8"
_cell_length_a       17.807436237873137
_cell_length_b       10.299137764757564
_cell_length_c       9.27399911348925
_cell_angle_alpha    85.04301149889446
_cell_angle_beta     89.04204372891122
_cell_angle_gamma    88.40860916225229

_space_group_name_H-M_alt    "P 1"
_space_group_IT_number       1

loop_
  _space_group_symop_operation_xyz
  'x, y, z'

loop_
  _atom_site_type_symbol
  _atom_site_label
  _atom_site_symmetry_multiplicity
  _atom_site_fract_x
  _atom_site_fract_y
  _atom_site_fract_z
  _atom_site_occupancy
  N   N1        1.0  0.7125882327211005  0.4002109198017223  0.3957608910605954  1.0000
  C   C1        1.0  0.65203152714833  0.36511298276808923  0.3835223352718675  1.0000
  C   C2        1.0  0.5767056412119388  0.321455014431268  0.3682989006972326  1.0000
  C   C3        1.0  0.5589581094040657  0.25093368370819413  0.2516214343955228  1.0000
  C   C4        1.0  0.48582082061976856  0.20843436516692918  0.23674866706848774  1.0000
  C   C5        1.0  0.42938238365963893  0.23607909771397528  0.33851744805101824  1.0000
  C   C6        1.0  0.35165604157347  0.19102748987549664  0.32280272417025935  1.0000
  C   C7        1.0  0.2894069615239135  0.2725676027622195  0.351600056269612  1.0000
  C   C8        1.0  0.21612728259519573  0.22986511403758073  0.3367425758646825  1.0000
  C   C9        1.0  0.1528273869113176  0.31409366167269726  0.3659432963912568  1.0000
  N   N2        1.0  0.1019472604340623  0.38180757734421644  0.3894198705663606  1.0000
  C   C10       1.0  0.20451317599183771  0.10536473049801431  0.29305969113123576  1.0000
  C   C11       1.0  0.2659049121424357  0.023810836122895033  0.2642530397834828  1.0000
  C   C12       1.0  0.3390657734368942  0.06612048878984456  0.27888556520314034  1.0000
  C   C13       1.0  0.44782066779147495  0.30709295428849703  0.4554383811054215  1.0000
  C   C14       1.0  0.5210113215551216  0.34940319702704126  0.4701382255199993  1.0000
  H   H1        1.0  0.6015929002526699  0.22906077675083836  0.17192488962966815  1.0000
  H   H2        1.0  0.4731803499802202  0.15545806826342945  0.14460770825612212  1.0000
  H   H3        1.0  0.2978246893006072  0.36979241942891056  0.3836567044395427  1.0000
  H   H4        1.0  0.14807773504666  0.07141688894921883  0.2812975332924388  1.0000
  H   H5        1.0  0.2567930829917003  0.9274164565575603  0.2308618611236504  1.0000
  H   H6        1.0  0.3857589277918036  0.0005337083651315561  0.25774035283373253  1.0000
  H   H7        1.0  0.4058982472118443  0.32841568944165855  0.536573917828739  1.0000
  H   H8        1.0  0.5341839207587414  0.40360908719623056  0.561120975931231  1.0000
  C   C15       1.0  0.9071985416159881  0.009611401276292897  0.3927488779286845  1.0000
  C   C16       1.0  0.9076307236988972  0.02063555305954745  0.24076248979121928  1.0000
  C   C17       1.0  0.9079245971323453  0.9090911926808657  0.16354247106584463  1.0000
  C   C18       1.0  0.9077804018254706  0.7853764001813383  0.24036314734895803  1.0000
  C   C19       1.0  0.9073440800240519  0.7723966953724156  0.39244431812500324  1.0000
  C   C20       1.0  0.9070570956416331  0.8850388627766199  0.4677008874527062  1.0000
  C   C21       1.0  0.9083809133262816  0.9217986117039738  0.002755902959712617  1.0000
  C   C22       1.0  0.9539301709063996  0.8379397851388372  0.9243676161847155  1.0000
  C   C23       1.0  0.9542663240504704  0.8501559877913881  0.7730219513151049  1.0000
  C   C24       1.0  0.9092469327712113  0.9458623983069036  0.6983505414527307  1.0000
  C   C25       1.0  0.863797466328412  0.02961678714264693  0.7748732651355339  1.0000
  C   C26       1.0  0.8632724032588498  0.017904402629126213  0.9262229818380772  1.0000
  H   H9        1.0  0.9069939538829288  0.3328485327929118  0.45121351771517754  1.0000
  H   H10       1.0  0.9087794883669735  0.11616797516795518  0.182061808873222  1.0000
  H   H11       1.0  0.9069704084341216  0.6991079921446862  0.18142043532862998  1.0000
  H   H12       1.0  0.9067216869163722  0.8758202492481396  0.5849315097136065  1.0000
  H   H13       1.0  0.906042822860749  0.5406291971597338  0.6794973306618779  1.0000
  H   H14       1.0  0.9899694741666615  0.7641310199471464  0.9800404330434308  1.0000
  H   H15       1.0  0.9896216256958584  0.7855374912347968  0.713594804624363  1.0000
  H   H16       1.0  0.9095803121053938  0.9551236658537858  0.581197444672866  1.0000
  H   H17       1.0  0.8287763028421525  0.10351722340588233  0.7168847971554362  1.0000
  H   H18       1.0  0.8269123913077613  0.0827958797592061  0.9833687898374862  1.0000
  C   C27       1.0  0.9085694960390089  0.3942667336557075  0.9687227433970627  1.0000
  C   C28       1.0  0.9675334666889019  0.3292881306383093  0.046271642769549114  1.0000
  C   C29       1.0  0.02152249034223663  0.25529824361253306  0.976768532004042  1.0000
  C   C30       1.0  0.017998495978656104  0.2437518613304619  0.827534168509974  1.0000
  C   C31       1.0  0.9601656555582756  0.3108703462816587  0.7484073349534608  1.0000
  C   C32       1.0  0.9059731316277183  0.38774136826891153  0.8164703920399305  1.0000
  C   C33       1.0  0.07564162643302973  0.1633497461736502  0.7559306352517106  1.0000
  N   N3        1.0  0.13854696263900768  0.1149961679716569  0.8229629772842117  1.0000
  C   C34       1.0  0.17490432813811885  0.04829128996537757  0.7230736217812037  1.0000
  C   C35       1.0  0.13386725129230337  0.05670379029308179  0.5981972958792114  1.0000
  N   N4        1.0  0.07143811567420322  0.12900626050732522  0.6190195817874949  1.0000
  H   H19       1.0  0.8286270127998043  0.5619804442493272  0.2365368917889068  1.0000
  H   H20       1.0  0.9709375018314707  0.33299223839923076  0.1623658264927051  1.0000
  H   H21       1.0  0.06557242275046525  0.20536982523465364  0.040797831354046916  1.0000
  H   H22       1.0  0.9583065705078269  0.3074439789786067  0.6323340075778892  1.0000
  H   H23       1.0  0.7887654781744282  0.4665849909487434  0.5325880117071526  1.0000
  H   H24       1.0  0.22804168702665195  0.996347245463613  0.7405962725993499  1.0000
  H   H25       1.0  0.14827985933063093  0.012654239263567115  0.49928708241185593  1.0000
  H   H26       1.0  0.02893888181807668  0.15070140388830855  0.5439985076553686  1.0000
  Zn  Zn1       1.0  0.8249488100801708  0.39489658289919105  0.39393935880037173  1.0000
  Zn  Zn2       1.0  0.9895866265144889  0.38711123593488417  0.39125327361250317  1.0000
  C   C36       1.0  0.9064612361106844  0.3838008101058761  0.6562300620070391  1.0000
  C   C37       1.0  0.908075998202599  0.3982085613649575  0.1289626820925687  1.0000
  C   C38       1.0  0.9073303246987865  0.6282584965584932  0.38674997214548945  1.0000
  C   C39       1.0  0.9072068529016895  0.15374931655648316  0.39844285044928474  1.0000
  O   O1        1.0  0.9703895680590277  0.3965713099857817  0.18172131626103138  1.0000
  O   O2        1.0  0.9691039605537667  0.3795281866818387  0.6014323362114793  1.0000
  O   O3        1.0  0.9698049137336696  0.5769308883570146  0.38382527023429747  1.0000
  O   O4        1.0  0.969688559032627  0.19916862109119873  0.3993282749236591  1.0000
  O   O5        1.0  0.8448468213792495  0.5828392004011063  0.38586435839825173  1.0000
  O   O6        1.0  0.8441458687293711  0.3854380597400166  0.6034713467893038  1.0000
  O   O7        1.0  0.8454314815909809  0.40248115114030614  0.183758591431729  1.0000
  O   O8        1.0  0.8447304722282946  0.20507845212335996  0.4013656583179477  1.0000
