data_image0
_chemical_formula_structural       NC12NC2H8C9H10C6NCSNH7Zn2C4O8
_chemical_formula_sum              "N4 C34 H25 S1 Zn2 O8"
_cell_length_a       17.80743265337812
_cell_length_b       10.297183801781406
_cell_length_c       9.275081717742442
_cell_angle_alpha    86.10433301500198
_cell_angle_beta     91.71745222805816
_cell_angle_gamma    89.43536064670782

_space_group_name_H-M_alt    "P 1"
_space_group_IT_number       1

loop_
  _space_group_symop_operation_xyz
  'x, y, z'

loop_
  _atom_site_type_symbol
  _atom_site_label
  _atom_site_symmetry_multiplicity
  _atom_site_fract_x
  _atom_site_fract_y
  _atom_site_fract_z
  _atom_site_occupancy
  N   N1        1.0  0.7049079620978005  0.3931260639801466  0.44716205876612597  1.0000
  C   C1        1.0  0.6539649749255454  0.4220080392919128  0.3709104447893874  1.0000
  C   C2        1.0  0.5905868995923623  0.4579351566108725  0.2760630350046387  1.0000
  C   C3        1.0  0.6020865590294876  0.5107082474605127  0.13552268174653248  1.0000
  C   C4        1.0  0.5406201372716379  0.5451552496763981  0.043334906445317234  1.0000
  C   C5        1.0  0.467498569979141  0.5270861184775104  0.09095504140021093  1.0000
  C   C6        1.0  0.45502297598331864  0.4741988596833043  0.23201496499467522  1.0000
  C   C7        1.0  0.5173466842601322  0.4397549476293381  0.324184415176884  1.0000
  C   C8        1.0  0.3773383298643216  0.4550438137284767  0.28280980223573016  1.0000
  C   C9        1.0  0.3587798009808438  0.4835045384683283  0.4237813914963773  1.0000
  C   C10       1.0  0.2856283599780576  0.4654773965448534  0.4714465198989665  1.0000
  C   C11       1.0  0.23009398288064634  0.4187435442009405  0.37907010295377197  1.0000
  C   C12       1.0  0.1548084533499978  0.40017739427659454  0.4282901545798943  1.0000
  N   N2        1.0  0.0942842191822411  0.38525145771885294  0.4678596900909144  1.0000
  C   C13       1.0  0.24796199367088753  0.39011927494692866  0.2387011464239155  1.0000
  C   C14       1.0  0.321060120684575  0.40815865463285483  0.19075204519804978  1.0000
  H   H1        1.0  0.6584903355909295  0.52519268567911  0.09729961890761962  1.0000
  H   H2        1.0  0.5496424576201523  0.586288837620429  0.934805819286753  1.0000
  H   H3        1.0  0.4207413057889061  0.5560757174279113  0.018152371210898625  1.0000
  H   H4        1.0  0.5090225423680544  0.39723442764704964  0.43257608333701275  1.0000
  H   H5        1.0  0.4005732878619319  0.5213480021965065  0.49653154911688113  1.0000
  H   H6        1.0  0.2723604347876557  0.48830637797130105  0.5801991887399904  1.0000
  H   H7        1.0  0.2054523512704171  0.3535475613129908  0.1664086329681764  1.0000
  H   H8        1.0  0.3338002159540628  0.38379672706697443  0.08233675293351417  1.0000
  C   C15       1.0  0.8996026447891997  0.007714917267976899  0.45771539289433694  1.0000
  C   C16       1.0  0.8971687835739194  0.016260347517624403  0.3059400658243481  1.0000
  C   C17       1.0  0.8959216715124384  0.9040219374516038  0.22818111814838773  1.0000
  C   C18       1.0  0.8971590376160247  0.7810841659969113  0.30535179051029404  1.0000
  C   C19       1.0  0.899596760941233  0.7706526020289294  0.457319132844564  1.0000
  C   C20       1.0  0.9008019383363198  0.8844355285899379  0.5325088880423092  1.0000
  C   C21       1.0  0.8932890708712533  0.9226966226852125  0.06402537378712814  1.0000
  C   C22       1.0  0.8491661541245075  0.8241505866560938  0.9814583923520193  1.0000
  C   C23       1.0  0.9347554213198227  0.8226867079439696  0.9814299845163124  1.0000
  H   H9        1.0  0.9005476237511424  0.3319603986069062  0.5161996738556283  1.0000
  H   H10       1.0  0.8962293366394412  0.11098171721014438  0.24734642427823172  1.0000
  H   H11       1.0  0.8962438561716896  0.6929910973491211  0.24838518616224126  1.0000
  H   H12       1.0  0.9026793367923832  0.877115114454739  0.6496067200324671  1.0000
  H   H13       1.0  0.9041909533464239  0.5437340668923015  0.744342121451232  1.0000
  H   H14       1.0  0.8924435965292467  0.02295518877740444  0.011262868449017693  1.0000
  H   H15       1.0  0.8242000492064316  0.7416077712066211  0.04571340909845944  1.0000
  H   H16       1.0  0.8224957676087653  0.8646459917121256  0.8780812663904576  1.0000
  H   H17       1.0  0.9617802012705798  0.7392554712423117  0.04566849739298907  1.0000
  H   H18       1.0  0.9581081927261511  0.8623241610730328  0.878034925665992  1.0000
  C   C24       1.0  0.8989199685447976  0.38539172547307277  0.034294250231931896  1.0000
  C   C25       1.0  0.8317625603486621  0.415062410951151  0.10141289680461907  1.0000
  C   C26       1.0  0.7679035567974929  0.45647502950561014  0.019658592169577993  1.0000
  C   C27       1.0  0.7699033219257967  0.4706990887656424  0.8685065222998838  1.0000
  C   C28       1.0  0.835689231633174  0.43698225268105995  0.8002094846896748  1.0000
  C   C29       1.0  0.9002794327920722  0.3929758221927922  0.8807403379689274  1.0000
  N   N3        1.0  0.7044052965009502  0.5115029829105444  0.7822186722603779  1.0000
  C   C30       1.0  0.6483048597120986  0.6000609254280371  0.8270543866776872  1.0000
  S   S1        1.0  0.5638033037576209  0.5994295244322125  0.7525967354603069  1.0000
  N   N4        1.0  0.6672946027649661  0.6985131924906116  0.9230055372808539  1.0000
  H   H19       1.0  0.0035544832789051713  0.26834807577109476  0.33037092680382507  1.0000
  H   H20       1.0  0.7168408267832566  0.47706610657693305  0.07472259931170688  1.0000
  H   H21       1.0  0.8358878190820858  0.4432965019934428  0.68310594323831  1.0000
  H   H22       1.0  0.024218673145158572  0.3808975755747719  0.6078597944157456  1.0000
  H   H23       1.0  0.6974554224143965  0.47535801955860385  0.6800816565695036  1.0000
  H   H24       1.0  0.7228902389387635  0.7123675504417888  0.9568032642174651  1.0000
  H   H25       1.0  0.6261492982751058  0.762348148208126  0.9555173498480775  1.0000
  Zn  Zn1       1.0  0.8172735556119977  0.39085022892418286  0.4531432584753452  1.0000
  Zn  Zn2       1.0  0.9819186421364083  0.38751680173023306  0.46189025149202867  1.0000
  C   C31       1.0  0.9000208206463605  0.38636717166990114  0.7207464737992877  1.0000
  C   C32       1.0  0.8991731752357904  0.3920014629214048  0.19428727228924547  1.0000
  C   C33       1.0  0.8995847713306553  0.6263897569725059  0.4516507207861486  1.0000
  C   C34       1.0  0.8996091685051051  0.15197731871288434  0.4633830999655777  1.0000
  O   O1        1.0  0.9617401060390971  0.39294906564183685  0.2513018332537882  1.0000
  O   O2        1.0  0.9624157002283594  0.3828885911302502  0.6703702637771916  1.0000
  O   O3        1.0  0.9620627450115612  0.5767098947421685  0.45307349387222096  1.0000
  O   O4        1.0  0.9620930049000537  0.19912777149195196  0.46859849210792626  1.0000
  O   O5        1.0  0.8370991366630525  0.5792392603013452  0.4464350148669469  1.0000
  O   O6        1.0  0.8374520917409412  0.3854195167342227  0.6637317071162234  1.0000
  O   O7        1.0  0.8367764948190572  0.39547993045104235  0.24466154385918437  1.0000
  O   O8        1.0  0.8371293938505557  0.2016586279780053  0.4619583107716543  1.0000
