data_image0
_chemical_formula_structural       NC9NC4H8C6NO2H5C8H6Zn2C4O8
_chemical_formula_sum              "N3 C31 H19 O10 Zn2"
_cell_length_a       16.32274767691083
_cell_length_b       9.273392599741051
_cell_length_c       9.275144076552241
_cell_angle_alpha    86.08729211106984
_cell_angle_beta     89.93057160658579
_cell_angle_gamma    88.93063911827517

_space_group_name_H-M_alt    "P 1"
_space_group_IT_number       1

loop_
  _space_group_symop_operation_xyz
  'x, y, z'

loop_
  _atom_site_type_symbol
  _atom_site_label
  _atom_site_symmetry_multiplicity
  _atom_site_fract_x
  _atom_site_fract_y
  _atom_site_fract_z
  _atom_site_occupancy
  N   N1        1.0  0.7550111448324553  0.557164289185156  0.40186490110137574  1.0000
  C   C1        1.0  0.7027222437989651  0.504058163176321  0.3414895315612927  1.0000
  C   C2        1.0  0.6377265407072191  0.43809994113216905  0.2665028398377307  1.0000
  C   C3        1.0  0.6493585141957613  0.3478808306293692  0.16392962602979155  1.0000
  C   C4        1.0  0.570031578969362  0.3038534535232018  0.11387729971432559  1.0000
  C   C5        1.0  0.5110419916732427  0.36828656252411474  0.1871360445419004  1.0000
  C   C6        1.0  0.4211194719586013  0.3512574980803773  0.16777833275828002  1.0000
  C   C7        1.0  0.36545758911576853  0.42635839106835277  0.2531579255077534  1.0000
  C   C8        1.0  0.2807618636640039  0.4118045321765662  0.2366135988793785  1.0000
  C   C9        1.0  0.22468602377237448  0.48921415883671554  0.32461706544359825  1.0000
  N   N2        1.0  0.17961999921180724  0.5514387576912374  0.39535694830097445  1.0000
  C   C10       1.0  0.2506750925658857  0.3220283238968513  0.13455229057426754  1.0000
  C   C11       1.0  0.3050149713621693  0.24702691015221465  0.04928616811076236  1.0000
  C   C12       1.0  0.38955224446739745  0.26118875415115284  0.06538469323946994  1.0000
  C   C13       1.0  0.5487135144164572  0.4622371030157577  0.29394876627295674  1.0000
  H   H1        1.0  0.7082968488102923  0.31279885553966524  0.1240412342683932  1.0000
  H   H2        1.0  0.5618011075332637  0.23011748553226274  0.030044134886844095  1.0000
  H   H3        1.0  0.38750837409738337  0.49644385714309064  0.33283410079012943  1.0000
  H   H4        1.0  0.1852938874166556  0.3100389609515248  0.12092344632968044  1.0000
  H   H5        1.0  0.28156758226259426  0.1775766445213946  0.9703323992428295  1.0000
  H   H6        1.0  0.42938627496632487  0.20119245401095484  0.9971777215041056  1.0000
  H   H7        1.0  0.5326740803341546  0.42442848600737626  0.4065138994819828  1.0000
  H   H8        1.0  0.5311421597912278  0.5776454496795088  0.2696094966176339  1.0000
  C   C14       1.0  0.9698130002108707  0.13073283803284763  0.39766623594637807  1.0000
  C   C15       1.0  0.9587844763208847  0.21329796575125765  0.2661639041924375  1.0000
  C   C16       1.0  0.9405471237226424  0.14755189172684413  0.13954983647609343  1.0000
  C   C17       1.0  0.9327375457657949  0.9972499053007792  0.1409077746495664  1.0000
  C   C18       1.0  0.9450395451970142  0.9134921379924746  0.2713854431071199  1.0000
  C   C19       1.0  0.9648261188014974  0.977859013032929  0.3995679081012058  1.0000
  N   N3        1.0  0.9132061891355308  0.9300740031151482  0.01008695592700049  1.0000
  O   O1        1.0  0.9018775730168109  0.0124210541423071  0.882292440851522  1.0000
  O   O2        1.0  0.9059923187411368  0.7962396520138638  0.010427638859626494  1.0000
  H   H9        1.0  0.9547263607678268  0.2099154304605015  0.751670671702013  1.0000
  H   H10       1.0  0.9623469457524257  0.33006222265769325  0.26185062975103945  1.0000
  H   H11       1.0  0.931727860313724  0.21488828644607175  0.04061727207522847  1.0000
  H   H12       1.0  0.9410868009184338  0.7969505366001824  0.27247206682303293  1.0000
  H   H13       1.0  0.9574637983414374  0.6815622036590008  0.6387750838499082  1.0000
  C   C20       1.0  0.9654070523592304  0.5513703714470539  0.975354540109775  1.0000
  C   C21       1.0  0.9114332393083433  0.6461584813054515  0.04235820266836688  1.0000
  C   C22       1.0  0.8639916499388891  0.7480045199111969  0.9603682543018315  1.0000
  C   C23       1.0  0.8696643569845839  0.757144590031521  0.8098706901547175  1.0000
  C   C24       1.0  0.9219378521559128  0.6622736401879128  0.7411370275952502  1.0000
  C   C25       1.0  0.9692320650532504  0.5572215519841863  0.8218796793334946  1.0000
  C   C26       1.0  0.8210094328712197  0.8629717069044761  0.7255379673039477  1.0000
  C   C27       1.0  0.7802756230569668  0.9515738511186913  0.6549155278771434  1.0000
  H   H14       1.0  0.13684806307766262  0.3597281679554385  0.09092293670959228  1.0000
  H   H15       1.0  0.9073492411884878  0.6437890376667477  0.15908569698014663  1.0000
  H   H16       1.0  0.8234254158721878  0.8206657625622922  0.014583793685020609  1.0000
  H   H17       1.0  0.9242514925980108  0.6682355470768149  0.6240298697438433  1.0000
  H   H18       1.0  0.0829141661948185  0.42363332374575385  0.5500385667197794  1.0000
  H   H19       1.0  0.7445197966793137  0.029347635059986835  0.5929222095522841  1.0000
  Zn  Zn1       1.0  0.8775441547581848  0.5555082107401951  0.399995161679801  1.0000
  Zn  Zn2       1.0  0.05708711849002901  0.553083081551609  0.39723846905271387  1.0000
  C   C28       1.0  0.9685410530044152  0.5503693835827967  0.6618553937005445  1.0000
  C   C29       1.0  0.9660921707729464  0.5582237031427635  0.1353783524832557  1.0000
  C   C30       1.0  0.9657385739631047  0.8176945179096677  0.3934648732932384  1.0000
  C   C31       1.0  0.9688945990976172  0.29089683721933896  0.40376894678547925  1.0000
  O   O3        1.0  0.034457758855310106  0.5595971273029339  0.18803764113967447  1.0000
  O   O4        1.0  0.036444424583992996  0.5471542514822565  0.6071034217696846  1.0000
  O   O5        1.0  0.03418047558716486  0.7630227010044492  0.39037619510296806  1.0000
  O   O6        1.0  0.036721646037226385  0.3437286881795054  0.4047647606988856  1.0000
  O   O7        1.0  0.8979095659417415  0.7648626049413945  0.3924688709667755  1.0000
  O   O8        1.0  0.9001735043859641  0.5489958878448504  0.6091960246717201  1.0000
  O   O9        1.0  0.8981868311774838  0.5614387014232309  0.1901285110064328  1.0000
  O   O10       1.0  0.9004507189050662  0.3455702527301332  0.4068557386062954  1.0000
