data_image0
_chemical_formula_structural       NC8NH4C7NH5C9H9Zn2C4O8
_chemical_formula_sum              "N3 C28 H18 Zn2 O8"
_cell_length_a       11.048855714531884
_cell_length_b       9.275154477615127
_cell_length_c       9.273585224739813
_cell_angle_alpha    86.3668502262391
_cell_angle_beta     90.102074716351
_cell_angle_gamma    89.43371274831733

_space_group_name_H-M_alt    "P 1"
_space_group_IT_number       1

loop_
  _space_group_symop_operation_xyz
  'x, y, z'

loop_
  _atom_site_type_symbol
  _atom_site_label
  _atom_site_symmetry_multiplicity
  _atom_site_fract_x
  _atom_site_fract_y
  _atom_site_fract_z
  _atom_site_occupancy
  N   N1        1.0  0.12435426724950022  0.5618448128907896  0.4163627474073992  1.0000
  C   C1        1.0  0.0702033687969954  0.503045717136468  0.3311474095190303  1.0000
  C   C2        1.0  0.002639743258142645  0.42968120625748574  0.22482272096233102  1.0000
  C   C3        1.0  0.8749229895947486  0.429681016745793  0.22482282192690906  1.0000
  C   C4        1.0  0.8125971614370681  0.3571569264891723  0.11971641544614207  1.0000
  C   C5        1.0  0.8764638458079855  0.2852065014330911  0.015441320258993587  1.0000
  C   C6        1.0  0.0028700591724226685  0.28520639155690297  0.015441342485740917  1.0000
  C   C7        1.0  0.06585469939856538  0.35715702462760324  0.11971638812103391  1.0000
  C   C8        1.0  0.8064599470790859  0.5030457919239251  0.33114739668401527  1.0000
  N   N2        1.0  0.7515881530754848  0.5618448558466176  0.4163627763672286  1.0000
  H   H1        1.0  0.7145404865818838  0.356248749952891  0.11839958872428902  1.0000
  H   H2        1.0  0.8279080820683365  0.22940007790903064  0.9345637445321534  1.0000
  H   H3        1.0  0.052110122387466505  0.22940018730707235  0.9345637443573352  1.0000
  H   H4        1.0  0.16392249913904136  0.35624870370172523  0.1183998636419974  1.0000
  C   C9        1.0  0.4414769790844655  0.13843862426743758  0.41469483994892586  1.0000
  C   C10       1.0  0.40807622199296617  0.22033027418410311  0.28761027252254  1.0000
  C   C11       1.0  0.36484051578025023  0.15307261153865004  0.16725756362287414  1.0000
  C   C12       1.0  0.35429446845501605  0.00300592469574967  0.17257200802692818  1.0000
  C   C13       1.0  0.3888128706925589  0.9198772537284478  0.29675978402100367  1.0000
  C   C14       1.0  0.4344771728976704  0.9852400623117287  0.4180431425003279  1.0000
  C   C15       1.0  0.3298274017854484  0.2385305568002296  0.03864129571345476  1.0000
  N   N3        1.0  0.3016865663036796  0.30722317249840136  0.9352667610750696  1.0000
  H   H5        1.0  0.46544417621364276  0.21869387958992895  0.7684963219478969  1.0000
  H   H6        1.0  0.41301294269234623  0.3372463493978277  0.2833335783229698  1.0000
  H   H7        1.0  0.3204202162839336  0.9499422882181735  0.08007339246040046  1.0000
  H   H8        1.0  0.3824573173778341  0.8034083725283369  0.2966329362424418  1.0000
  H   H9        1.0  0.45574927351168515  0.6888713314952306  0.6551001994213088  1.0000
  C   C16       1.0  0.43737895823952466  0.5575514050889275  0.9931004921985781  1.0000
  C   C17       1.0  0.5456548958387097  0.525438587689739  0.06893029793607086  1.0000
  C   C18       1.0  0.6554615272661718  0.5063028829144265  0.9965942683499379  1.0000
  C   C19       1.0  0.6560012890344363  0.5200906431517966  0.8445895595059612  1.0000
  C   C20       1.0  0.5490412035773834  0.5494925659278214  0.7677453155483085  1.0000
  C   C21       1.0  0.43857519266291967  0.5661272509775535  0.8396374418738861  1.0000
  C   C22       1.0  0.7679144035085007  0.47323784392221824  0.0879787419029423  1.0000
  C   C23       1.0  0.863371310508779  0.37430903129576354  0.027349640369886522  1.0000
  C   C24       1.0  0.8871315322168025  0.5355230853586286  0.031890965732040095  1.0000
  H   H10       1.0  0.23776292134948768  0.5387219563939809  0.2743102485097566  1.0000
  H   H11       1.0  0.5451359191314105  0.5184802584228247  0.18607229332195319  1.0000
  H   H12       1.0  0.7381970362916299  0.5070629276940923  0.7836037259741899  1.0000
  H   H13       1.0  0.2576913555836205  0.6685746066893814  0.5513723899728582  1.0000
  H   H14       1.0  0.7600365159241801  0.46393892494942524  0.20770382244347196  1.0000
  H   H15       1.0  0.8473992022983006  0.3372065719106814  0.9176250999985872  1.0000
  H   H16       1.0  0.9141595683001089  0.306801887397558  0.11060401451278622  1.0000
  H   H17       1.0  0.8855384104040631  0.5961718535821001  0.9249116219183598  1.0000
  H   H18       1.0  0.9517950987499948  0.5622645861250759  0.11780419651395733  1.0000
  Zn  Zn1       1.0  0.30536047579971015  0.5618410415063446  0.4163710610831606  1.0000
  Zn  Zn2       1.0  0.5705820860774335  0.5618369207951992  0.4163662120810536  1.0000
  C   C25       1.0  0.43839385307424755  0.5587622774553807  0.6796011235365911  1.0000
  C   C26       1.0  0.4375515901763743  0.5649175054748232  0.15313629823867014  1.0000
  C   C27       1.0  0.435785933861036  0.8251183584562525  0.4116664581989786  1.0000
  C   C28       1.0  0.4401594333160047  0.29855969296304496  0.42107103357406395  1.0000
  O   O1        1.0  0.5382597979141855  0.5673817820042772  0.20684391164809957  1.0000
  O   O2        1.0  0.5389827191318364  0.556293781483328  0.6258894106268424  1.0000
  O   O3        1.0  0.5368754366902845  0.7713797006280325  0.40953027863717195  1.0000
  O   O4        1.0  0.5403669896155916  0.3522958720804057  0.4232029356073521  1.0000
  O   O5        1.0  0.3355754817544092  0.7713820902240374  0.4095343375509415  1.0000
  O   O6        1.0  0.33768274976239954  0.5562979025931378  0.6258933995369094  1.0000
  O   O7        1.0  0.33695982659177287  0.5673858353140424  0.20684616741361594  1.0000
  O   O8        1.0  0.33906701852618215  0.35229991617223666  0.42320529939736584  1.0000
