data_image0
_chemical_formula_structural       NC5NC4H6C6NH7C6NH7Zn2C4O8
_chemical_formula_sum              "N4 C25 H20 Zn2 O8"
_cell_length_a       13.854160002989762
_cell_length_b       9.274771166103582
_cell_length_c       9.274774538082514
_cell_angle_alpha    84.9550519661537
_cell_angle_beta     90.34967120186236
_cell_angle_gamma    90.59704847255895

_space_group_name_H-M_alt    "P 1"
_space_group_IT_number       1

loop_
  _space_group_symop_operation_xyz
  'x, y, z'

loop_
  _atom_site_type_symbol
  _atom_site_label
  _atom_site_symmetry_multiplicity
  _atom_site_fract_x
  _atom_site_fract_y
  _atom_site_fract_z
  _atom_site_occupancy
  N   N1        1.0  0.9135022584684115  0.5925436846561242  0.4051317130207388  1.0000
  C   C1        1.0  0.8411073668795451  0.6182755708828007  0.34596973837381917  1.0000
  C   C2        1.0  0.7510470991672985  0.6502867410254072  0.2723699771348571  1.0000
  C   C3        1.0  0.6635594071628712  0.6201721192460969  0.3442315139246832  1.0000
  C   C4        1.0  0.5759046868025461  0.6502867555598271  0.27236995390880425  1.0000
  C   C5        1.0  0.4859992248575598  0.6182754227341305  0.3459698303727663  1.0000
  N   N2        1.0  0.4137286874276686  0.592543621146768  0.4051317130499874  1.0000
  C   C6        1.0  0.5757745958342497  0.7111223635702284  0.1286647663483842  1.0000
  C   C7        1.0  0.6632441244563821  0.7433884578662845  0.056695740041172504  1.0000
  C   C8        1.0  0.6630367703998733  0.8045654137234057  0.9014875859343952  1.0000
  C   C9        1.0  0.7508516844968947  0.7111223630316705  0.12866467596628262  1.0000
  H   H1        1.0  0.6636846246038459  0.5729752220257156  0.4554568936212844  1.0000
  H   H2        1.0  0.507829231205425  0.733398503926827  0.07290986018405565  1.0000
  H   H3        1.0  0.7282702615242841  0.8729475579229683  0.8775484121538986  1.0000
  H   H4        1.0  0.5985617841409581  0.8729475592328066  0.8775484773119374  1.0000
  H   H5        1.0  0.6621175303205344  0.7146460738974993  0.8300145599876907  1.0000
  H   H6        1.0  0.8186521907271883  0.7333986171784904  0.07290977445161562  1.0000
  C   C10       1.0  0.16065990623851076  0.1689402494549812  0.40591840318119754  1.0000
  C   C11       1.0  0.13792917503555735  0.2533725312642998  0.2768534397963791  1.0000
  C   C12       1.0  0.12420712125680318  0.1894538029678048  0.14696961580321855  1.0000
  C   C13       1.0  0.13326261351703472  0.03973350929563813  0.1452099945335963  1.0000
  C   C14       1.0  0.1542013346116546  0.9539972336266852  0.2725019825729287  1.0000
  C   C15       1.0  0.16658027009173926  0.016135874481534085  0.4043575906100141  1.0000
  N   N3        1.0  0.10206370953438548  0.27699793088876334  0.01648615374307982  1.0000
  H   H7        1.0  0.2705599591942489  0.24585093303117223  0.7217800793999349  1.0000
  H   H8        1.0  0.13306014051322854  0.36997006612327943  0.2762990423118614  1.0000
  H   H9        1.0  0.1231617159890312  0.9891162133451841  0.045277496014711316  1.0000
  H   H10       1.0  0.1584384595204189  0.8378691997498372  0.2683685531022606  1.0000
  H   H11       1.0  0.23669888595649066  0.7171988393489385  0.6192553665147313  1.0000
  H   H12       1.0  0.0954132141365771  0.3890722411124117  0.01643927645227317  1.0000
  H   H13       1.0  0.09206323643850077  0.23037718089283124  0.9189271709559138  1.0000
  C   C16       1.0  0.1619136185474388  0.5962274848030802  0.9813148696397032  1.0000
  C   C17       1.0  0.23090274326917637  0.6813529037890045  0.047894549452626604  1.0000
  C   C18       1.0  0.30413913855900393  0.7545957451372235  0.9669946952696612  1.0000
  C   C19       1.0  0.3089777345757738  0.7430453501759073  0.818038560376436  1.0000
  C   C20       1.0  0.2403204906264239  0.6610976427366078  0.7497504635047232  1.0000
  C   C21       1.0  0.16532653421934418  0.5888485631246463  0.8289610908631477  1.0000
  N   N4        1.0  0.3742349502849193  0.8395204789597721  0.036579990014662826  1.0000
  H   H14       1.0  0.01566495953000114  0.31424154528748005  0.10775469933613224  1.0000
  H   H15       1.0  0.22921309360858408  0.6881943493072424  0.1639020742670665  1.0000
  H   H16       1.0  0.36551603077206085  0.7987782672086884  0.7544051115126047  1.0000
  H   H17       1.0  0.24459659363371375  0.6570851225971865  0.63358480669753  1.0000
  H   H18       1.0  0.06388921024134708  0.4033125445741823  0.5632211305872903  1.0000
  H   H19       1.0  0.3714952448896992  0.8485664274249796  0.14793324680920206  1.0000
  H   H20       1.0  0.4293721436577491  0.8941190302674412  0.9772373156521579  1.0000
  Zn  Zn1       1.0  0.057856812539021515  0.5925397316712485  0.4051400636306457  1.0000
  Zn  Zn2       1.0  0.26937409976656923  0.5925356666989465  0.4051352372744397  1.0000
  C   C22       1.0  0.16463911407865872  0.5844967345661867  0.6687483940111638  1.0000
  C   C23       1.0  0.16259412127857348  0.6005804826137994  0.1415270451440407  1.0000
  C   C24       1.0  0.16543305848878642  0.8560479027701241  0.39890131791927486  1.0000
  C   C25       1.0  0.1618000928910106  0.3290275806442664  0.4113742013768855  1.0000
  O   O1        1.0  0.2430921684049611  0.6020335526185701  0.1952938948169165  1.0000
  O   O2        1.0  0.2446777845036269  0.5830394947370017  0.6149774677877213  1.0000
  O   O3        1.0  0.24531782862391638  0.802320484251857  0.3970740418920162  1.0000
  O   O4        1.0  0.2424520517445509  0.38275257436618526  0.4131972124807868  1.0000
  O   O5        1.0  0.08477878838055082  0.8023228240070334  0.39707808841835157  1.0000
  O   O6        1.0  0.08413875605720798  0.5830435682607968  0.6149814341671529  1.0000
  O   O7        1.0  0.08255313268485986  0.6020375909798723  0.19529612607228897  1.0000
  O   O8        1.0  0.08191301638408133  0.38275660146804036  0.41319955196204705  1.0000
