data_image0
_chemical_formula_structural       NC5NC4H6C6H6C12H9Zn2C4O8
_chemical_formula_sum              "N2 C31 H21 Zn2 O8"
_cell_length_a       13.854160002989762
_cell_length_b       10.681118228259553
_cell_length_c       14.388202922059104
_cell_angle_alpha    85.83991400591465
_cell_angle_beta     92.42189757495021
_cell_angle_gamma    89.99830476723527

_space_group_name_H-M_alt    "P 1"
_space_group_IT_number       1

loop_
  _space_group_symop_operation_xyz
  'x, y, z'

loop_
  _atom_site_type_symbol
  _atom_site_label
  _atom_site_symmetry_multiplicity
  _atom_site_fract_x
  _atom_site_fract_y
  _atom_site_fract_z
  _atom_site_occupancy
  N   N1        1.0  0.8638514215645997  0.36387384417348695  0.9740271791843016  1.0000
  C   C1        1.0  0.7898462488749355  0.38551893837488316  0.9359289084615932  1.0000
  C   C2        1.0  0.6977827317838555  0.4124460198843791  0.8885332009094181  1.0000
  C   C3        1.0  0.612243058478036  0.3871450566566532  0.9348109061613044  1.0000
  C   C4        1.0  0.5226403187561549  0.4124460322300483  0.8885331859579042  1.0000
  C   C5        1.0  0.4347381101078404  0.3855188108368537  0.93592896757734  1.0000
  N   N2        1.0  0.36407785096554957  0.36387378903699424  0.9740271791277402  1.0000
  C   C6        1.0  0.5186104128331053  0.4635745952970263  0.7959900226786274  1.0000
  C   C7        1.0  0.6041143827002515  0.4907421377749564  0.7496455970684949  1.0000
  C   C8        1.0  0.5997264933248176  0.5420320108115655  0.649689384717338  1.0000
  C   C9        1.0  0.693687499312413  0.4635745937684381  0.7959899644283549  1.0000
  H   H1        1.0  0.615387438507135  0.347475903084808  0.006437614141503677  1.0000
  H   H2        1.0  0.44916120715140256  0.4822595159090022  0.7600834427067416  1.0000
  H   H3        1.0  0.6639058816651014  0.6011182176475335  0.6343422173043114  1.0000
  H   H4        1.0  0.5341974058493825  0.6011182195496084  0.6343422592990472  1.0000
  H   H5        1.0  0.597702106244366  0.463127805884749  0.6035195372569607  1.0000
  H   H6        1.0  0.7599841638122256  0.48225961322410676  0.7600833875882077  1.0000
  C   C10       1.0  0.11396944792065078  0.996123833564239  0.9740311926296668  1.0000
  C   C11       1.0  0.15958414827116676  0.9220898763760287  0.04789966299724704  1.0000
  C   C12       1.0  0.15958413164769114  0.7912076379242973  0.047899620471704485  1.0000
  C   C13       1.0  0.11396943347963567  0.731614237781968  0.9740312328383582  1.0000
  C   C14       1.0  0.06839248849580226  0.8056371912763935  0.9002238054603098  1.0000
  C   C15       1.0  0.06839250486139514  0.9365294496201932  0.9002238432111863  1.0000
  H   H7        1.0  0.06784039512812744  0.3021352404789372  0.899330553449406  1.0000
  H   H8        1.0  0.1953391584417736  0.9652412013868128  0.1058012274810124  1.0000
  H   H9        1.0  0.19533903904802621  0.7367371726844717  0.10580121105078388  1.0000
  H   H10       1.0  0.0326328159034699  0.7625313602627407  0.8423146808208208  1.0000
  H   H11       1.0  0.03263279027064245  0.990955799247562  0.8423146732576083  1.0000
  H   H12       1.0  0.06784073945757929  0.44020588795675  0.899330301838088  1.0000
  C   C16       1.0  0.10198163156610347  0.3620966626162587  0.7008892446431327  1.0000
  C   C17       1.0  0.004976432619191671  0.3468850787793754  0.7242198516170375  1.0000
  C   C18       1.0  0.9328745021020206  0.3353971956961843  0.6546345315791176  1.0000
  C   C19       1.0  0.9564794667418455  0.3389381182213102  0.561129188895873  1.0000
  C   C20       1.0  0.052952257564786935  0.35417381164878226  0.5360100735590547  1.0000
  C   C21       1.0  0.12530761803760604  0.3656411758475733  0.6065390921330069  1.0000
  C   C22       1.0  0.07810308154517599  0.3581090612825808  0.4364982902936583  1.0000
  C   C23       1.0  0.0337882776818037  0.27580593378652907  0.3759036153822026  1.0000
  C   C24       1.0  0.05748008393836134  0.2794729322108549  0.2822766188749768  1.0000
  C   C25       1.0  0.12595726165542365  0.36564140346558927  0.2471731983118107  1.0000
  C   C26       1.0  0.1702232018567373  0.44797664156908223  0.3076543067936144  1.0000
  C   C27       1.0  0.14658562572773556  0.4442376900732774  0.4013015718812196  1.0000
  H   H13       1.0  0.32773329496236214  0.3974664292829322  0.8006247268786661  1.0000
  H   H14       1.0  0.8583264962231002  0.3240445291307657  0.6732385661321443  1.0000
  H   H15       1.0  0.8991172408546461  0.33143898186638976  0.5083516916940887  1.0000
  H   H16       1.0  0.1999790388852214  0.3756087345598058  0.5878851892736825  1.0000
  H   H17       1.0  0.9816552334990819  0.20734397700651705  0.4012044796911489  1.0000
  H   H18       1.0  0.02229110679381207  0.2145490746449783  0.23746108624938092  1.0000
  H   H19       1.0  0.23705181853653484  0.45925024685019  0.046296097457934504  1.0000
  H   H20       1.0  0.223044152845629  0.5156839970063816  0.28265862363937133  1.0000
  H   H21       1.0  0.1810100712077105  0.5099849295047574  0.44593284880493345  1.0000
  Zn  Zn1       1.0  0.008206205152310412  0.36387051034660156  0.9740325563078752  1.0000
  Zn  Zn2       1.0  0.21972340381673852  0.36386692460649384  0.974029440981562  1.0000
  C   C28       1.0  0.12142318043933127  0.3599824269581897  0.14391381863048924  1.0000
  C   C29       1.0  0.10650874229762475  0.3677565886516159  0.8041482699183413  1.0000
  C   C30       1.0  0.11380178402688769  0.5925668191303848  0.9703246914976154  1.0000
  C   C31       1.0  0.11413006871050622  0.13517069221919312  0.977737446641912  1.0000
  O   O1        1.0  0.18829775657699077  0.3696492873491057  0.8388017598331513  1.0000
  O   O2        1.0  0.2001708140201423  0.3580860602935132  0.10925769650106842  1.0000
  O   O3        1.0  0.19401540040512064  0.545900904697705  0.9690832481854064  1.0000
  O   O4        1.0  0.1944530949546825  0.18183445145206556  0.9789761384087228  1.0000
  O   O5        1.0  0.03347644183371234  0.5459029835035856  0.9690858588768853  1.0000
  O   O6        1.0  0.03963185326764227  0.3580896433621765  0.10926025759802166  1.0000
  O   O7        1.0  0.027758746808221636  0.369652819521535  0.8388032026322025  1.0000
  O   O8        1.0  0.03391408824258966  0.1818379751198984  0.9789776509440359  1.0000
