data_image0
_chemical_formula_structural       NC9NC5H8C8H10C6FH5Zn2C4O8
_chemical_formula_sum              "N2 C32 H23 F1 Zn2 O8"
_cell_length_a       17.807436237873137
_cell_length_b       9.275653711864159
_cell_length_c       9.275646106892307
_cell_angle_alpha    85.13522125218178
_cell_angle_beta     89.39821068290672
_cell_angle_gamma    87.8440138982238

_space_group_name_H-M_alt    "P 1"
_space_group_IT_number       1

loop_
  _space_group_symop_operation_xyz
  'x, y, z'

loop_
  _atom_site_type_symbol
  _atom_site_label
  _atom_site_symmetry_multiplicity
  _atom_site_fract_x
  _atom_site_fract_y
  _atom_site_fract_z
  _atom_site_occupancy
  N   N1        1.0  0.6993225650549394  0.5581139538916888  0.40155293656509183  1.0000
  C   C1        1.0  0.6389264458154995  0.5191688069709186  0.38917370798883666  1.0000
  C   C2        1.0  0.5638003115301143  0.47072533326757116  0.37377529196043535  1.0000
  C   C3        1.0  0.5460735809519628  0.39266846581405157  0.256823096701029  1.0000
  C   C4        1.0  0.4731305676739391  0.34551075835460954  0.24177999638614023  1.0000
  C   C5        1.0  0.4168676446897733  0.3759910816883596  0.34365165297244404  1.0000
  C   C6        1.0  0.3393474132073668  0.32600121795691006  0.3277563623791915  1.0000
  C   C7        1.0  0.2767264511886049  0.41647846290671753  0.3568804764909457  1.0000
  C   C8        1.0  0.2036422596864492  0.3690951330805623  0.34185184138177305  1.0000
  C   C9        1.0  0.1399564307755634  0.4625566300310724  0.37139016512527134  1.0000
  N   N2        1.0  0.0887660447207948  0.5376931945798  0.39513814878772857  1.0000
  C   C10       1.0  0.1925969045601413  0.2309483893794646  0.29766998142262846  1.0000
  C   C11       1.0  0.2543605709396312  0.1404558618395575  0.2685364932144205  1.0000
  C   C12       1.0  0.32732745380211  0.1874034813168104  0.2833386064158214  1.0000
  C   C13       1.0  0.4352831092120195  0.4545943109698254  0.46084928286222615  1.0000
  C   C14       1.0  0.5082800018409126  0.5015424434043172  0.47571871165066826  1.0000
  H   H1        1.0  0.5885722049115438  0.3685502572639303  0.17704508437942867  1.0000
  H   H2        1.0  0.46049099922987075  0.2868831842725117  0.14943304492392917  1.0000
  H   H3        1.0  0.284693289506271  0.5243643368671378  0.38932696116949095  1.0000
  H   H4        1.0  0.1363170348655174  0.19327924478246383  0.28577175390490295  1.0000
  H   H5        1.0  0.24569050788301602  0.03349488348693597  0.23475894614452675  1.0000
  H   H6        1.0  0.3743263461076008  0.11462385636632466  0.2619303733967224  1.0000
  H   H7        1.0  0.3935047186397133  0.47809859586002834  0.5420639417688751  1.0000
  H   H8        1.0  0.5214408709301084  0.5615377437249374  0.5669125194366609  1.0000
  C   C15       1.0  0.8961566075944175  0.12441803450161859  0.396963941178347  1.0000
  C   C16       1.0  0.87848729849591  0.21012097289572673  0.26853639938286333  1.0000
  C   C17       1.0  0.8540439536712835  0.1474866811446136  0.14580606509490712  1.0000
  C   C18       1.0  0.8483874633298565  0.9971404641111337  0.15051082482407963  1.0000
  C   C19       1.0  0.8668669868131519  0.9102371902488481  0.2761436047932493  1.0000
  C   C20       1.0  0.8919392299876057  0.9713775071697345  0.3997394896566191  1.0000
  C   C21       1.0  0.8364076356054824  0.2406637375509859  0.008580532718241773  1.0000
  C   C22       1.0  0.9066770865535354  0.2598069252862305  0.9145466303261149  1.0000
  H   H9        1.0  0.9644221596936712  0.38325248120256594  0.5958832646126138  1.0000
  H   H10       1.0  0.8820843461927568  0.3267924452483133  0.26458882759627  1.0000
  H   H11       1.0  0.8303684396496559  0.9468524096128053  0.05613933206289312  1.0000
  H   H12       1.0  0.8633917469734881  0.7939576786010857  0.27531986106069795  1.0000
  H   H13       1.0  0.8990721185111661  0.669362260633322  0.6376224389420868  1.0000
  H   H14       1.0  0.7925831828860346  0.19074951599918077  0.9465432095685782  1.0000
  H   H15       1.0  0.8136086837204737  0.3487502450970703  0.03453731543236982  1.0000
  H   H16       1.0  0.9504843343280867  0.3130719070058019  0.9734107659717148  1.0000
  H   H17       1.0  0.9292250498803918  0.15303430740499713  0.8844771779653895  1.0000
  H   H18       1.0  0.8924785971361042  0.32868298519570316  0.814047951544274  1.0000
  C   C23       1.0  0.8939379896760102  0.5524160545333234  0.9745275188749165  1.0000
  C   C24       1.0  0.9626685806256645  0.563880434074046  0.04550442987669845  1.0000
  C   C25       1.0  0.03053514254586487  0.5618527721279682  0.9689456380433468  1.0000
  C   C26       1.0  0.030863722941847138  0.5481803789939161  0.8205203303966666  1.0000
  C   C27       1.0  0.9632987110823142  0.5390587708960985  0.7475999441339178  1.0000
  C   C28       1.0  0.8941578262673513  0.5433795435728068  0.8221759376160183  1.0000
  F   F1        1.0  0.09627779018800897  0.5714219283674715  0.03933956844015141  1.0000
  H   H19       1.0  0.7202722125795861  0.4443918547666281  0.09016662890064442  1.0000
  H   H20       1.0  0.9639669926782064  0.570982288826523  0.16143320948006257  1.0000
  H   H21       1.0  0.08355659453674069  0.5460205352976684  0.7613389626971321  1.0000
  H   H22       1.0  0.965046644125743  0.5320758869023898  0.6316162033501831  1.0000
  H   H23       1.0  0.7765542169723236  0.4766175632318461  0.549034222277843  1.0000
  Zn  Zn1       1.0  0.8117075609771259  0.5522170269087789  0.3997101016888871  1.0000
  Zn  Zn2       1.0  0.9763810922134448  0.5435782398160611  0.3969928103097251  1.0000
  C   C29       1.0  0.8941432254167736  0.5393426750696002  0.6619334386525244  1.0000
  C   C30       1.0  0.8939472169799206  0.5564543153899251  0.13476959129276223  1.0000
  C   C31       1.0  0.8927310504067093  0.8113456815129279  0.3934636491409622  1.0000
  C   C32       1.0  0.8953593444457973  0.28444957845990015  0.4032394530000962  1.0000
  O   O1        1.0  0.9564430919759934  0.5545249265069376  0.18751707609078228  1.0000
  O   O2        1.0  0.9566307556523639  0.5347143409483675  0.6071231735424829  1.0000
  O   O3        1.0  0.9554895644294852  0.7543602367943001  0.39033193785879905  1.0000
  O   O4        1.0  0.9575842269275129  0.3348790450786694  0.40430820452075045  1.0000
  O   O5        1.0  0.8305043700680536  0.7609162245958159  0.3923947083975534  1.0000
  O   O6        1.0  0.8316455526401156  0.5412720621862255  0.6091858728051576  1.0000
  O   O7        1.0  0.8314578888138718  0.5610826159870648  0.1895780399667779  1.0000
  O   O8        1.0  0.8325990238417464  0.3414367230907769  0.40636927657015365  1.0000
