data_image0
_chemical_formula_structural       NC8NC6H8C6ClH5C6NCH9Zn2C4O8
_chemical_formula_sum              "N3 C31 H22 Cl1 Zn2 O8"
_cell_length_a       17.457602349358154
_cell_length_b       10.30297070629231
_cell_length_c       9.273390368590327
_cell_angle_alpha    86.16779528597043
_cell_angle_beta     92.8511133753594
_cell_angle_gamma    91.68807172504815

_space_group_name_H-M_alt    "P 1"
_space_group_IT_number       1

loop_
  _space_group_symop_operation_xyz
  'x, y, z'

loop_
  _atom_site_type_symbol
  _atom_site_label
  _atom_site_symmetry_multiplicity
  _atom_site_fract_x
  _atom_site_fract_y
  _atom_site_fract_z
  _atom_site_occupancy
  N   N1        1.0  0.7225530462235998  0.43778888125009785  0.47569710457600634  1.0000
  C   C1        1.0  0.6614761019347616  0.39176594048722957  0.463915778805541  1.0000
  C   C2        1.0  0.585493799316957  0.3345192159394177  0.44927039920849987  1.0000
  C   C3        1.0  0.526958189552872  0.3754626644837751  0.5323917979606432  1.0000
  C   C4        1.0  0.45241391244853857  0.3203400341373812  0.5184283214115948  1.0000
  C   C5        1.0  0.3902869942067476  0.3635728166891874  0.6064570351930851  1.0000
  C   C6        1.0  0.3157455290093193  0.3814436029211512  0.544570727259295  1.0000
  C   C7        1.0  0.25720990633562324  0.4222043310129362  0.6278119329344811  1.0000
  C   C8        1.0  0.1812304923499195  0.4406572687847723  0.5634669078143353  1.0000
  N   N2        1.0  0.1201559599985118  0.4554870547290695  0.5117336752502648  1.0000
  C   C9        1.0  0.2727235387578283  0.44534273056102824  0.7735037990683775  1.0000
  C   C10       1.0  0.3464802638211821  0.42786491700024376  0.8358202631646185  1.0000
  C   C11       1.0  0.4050042389109175  0.3872890409848011  0.753087036322821  1.0000
  C   C12       1.0  0.4376940245037086  0.22358155309939098  0.41975319269903766  1.0000
  C   C13       1.0  0.4962178788390504  0.18292093794265818  0.3370757173906065  1.0000
  C   C14       1.0  0.5699773390215898  0.23816174210936625  0.3516495278892704  1.0000
  H   H1        1.0  0.539296019910242  0.451339515874174  0.6063385227759637  1.0000
  H   H2        1.0  0.3034100381831413  0.36539575903752675  0.4313440219755511  1.0000
  H   H3        1.0  0.2278570829224071  0.4768396965355364  0.8387997745323692  1.0000
  H   H4        1.0  0.3583020784475641  0.44546595578540904  0.9486327242008277  1.0000
  H   H5        1.0  0.46148555498842914  0.3727912601794563  0.8042559481689922  1.0000
  H   H6        1.0  0.3812103616178348  0.17814770596409923  0.40793178444836764  1.0000
  H   H7        1.0  0.48439397000422485  0.10814747230179655  0.26179909646229405  1.0000
  H   H8        1.0  0.6148437911031067  0.20580078314477368  0.28692079855300157  1.0000
  C   C15       1.0  0.9213581561586971  0.06539072747193209  0.49372193779492646  1.0000
  C   C16       1.0  0.0005770117688568277  0.06603945011162349  0.5286628664591013  1.0000
  C   C17       1.0  0.03988329354646947  0.9494044840973261  0.5459995219270117  1.0000
  C   C18       1.0  0.00057701116205644  0.8309314807662168  0.5286627986199461  1.0000
  C   C19       1.0  0.9213581643394392  0.8278756704380953  0.49372202104248153  1.0000
  C   C20       1.0  0.8821348926880681  0.9457161405852462  0.4764218463181171  1.0000
  Cl  Cl1       1.0  0.1388465185805725  0.9517184092276585  0.5896489673320351  1.0000
  H   H9        1.0  0.8915178007867103  0.39244947562319776  0.48055949501749917  1.0000
  H   H10       1.0  0.03208427589991114  0.1568227261968307  0.5425595992158072  1.0000
  H   H11       1.0  0.03208424556846978  0.7416215310279309  0.5425594929152189  1.0000
  H   H12       1.0  0.8210389072086195  0.9442874984470467  0.44947430535308586  1.0000
  H   H13       1.0  0.891517797022402  0.49942151138281005  0.48055976679484913  1.0000
  C   C21       1.0  0.9213937277980305  0.4425862348010532  0.07047940493135019  1.0000
  C   C22       1.0  0.9918579301451287  0.44314316134417897  0.15046838615213565  1.0000
  C   C23       1.0  0.06109307845390344  0.45571413000836336  0.0813286988076718  1.0000
  C   C24       1.0  0.06162312605075715  0.4681581887259121  0.9297487512138334  1.0000
  C   C25       1.0  0.991626550821161  0.46543261592279395  0.8489925511400527  1.0000
  C   C26       1.0  0.9213226272546637  0.4506801524583166  0.9169644955185436  1.0000
  N   N3        1.0  0.13215497684263022  0.48228171032296663  0.855353106939202  1.0000
  C   C27       1.0  0.2079044868138762  0.4858064956402295  0.9292068319939526  1.0000
  H   H14       1.0  0.8002992854362443  0.3748330775576909  0.34534405094662235  1.0000
  H   H15       1.0  0.9934508270980906  0.43694724915507677  0.2676608793503974  1.0000
  H   H16       1.0  0.11395329334959747  0.4568724158849218  0.14724066812886982  1.0000
  H   H17       1.0  0.9921976330509877  0.47185519544039245  0.7319166784128384  1.0000
  H   H18       1.0  0.7425270658724874  0.34185961530760167  0.8052683423058613  1.0000
  H   H19       1.0  0.12966567172785415  0.49077510603131835  0.742251656592372  1.0000
  H   H20       1.0  0.21288363107664798  0.5693106296968278  0.9991266518446271  1.0000
  H   H21       1.0  0.21726280353941685  0.3934205492096483  0.9956089555148022  1.0000
  H   H22       1.0  0.2528653151583682  0.49762253618322116  0.8483912726253853  1.0000
  Zn  Zn1       1.0  0.8372926577763826  0.44289278979232627  0.48610480222682373  1.0000
  Zn  Zn2       1.0  0.005416333204071311  0.4503726145868814  0.5013377775592192  1.0000
  C   C28       1.0  0.921334339092378  0.4439781013018369  0.756960538502379  1.0000
  C   C29       1.0  0.9213764877815509  0.4492890242071117  0.23048234908939325  1.0000
  C   C30       1.0  0.921354709535396  0.6836946637806451  0.48797820990405216  1.0000
  C   C31       1.0  0.9213560599631678  0.2095709001050956  0.499464749330613  1.0000
  O   O1        1.0  0.9851727605152588  0.4543714321538237  0.28996163354486115  1.0000
  O   O2        1.0  0.9851400459260672  0.4445717239252649  0.7090423149634304  1.0000
  O   O3        1.0  0.9851556351082439  0.638145855821276  0.4918371035961917  1.0000
  O   O4        1.0  0.98515711397294  0.2607973059594142  0.5071667316478827  1.0000
  O   O5        1.0  0.8575518196351551  0.632468095868638  0.4802758429323115  1.0000
  O   O6        1.0  0.8575362304559853  0.4388955230446778  0.6974809774508091  1.0000
  O   O7        1.0  0.8575689452417888  0.4486951694649477  0.2783985631971333  1.0000
  O   O8        1.0  0.8575532986872535  0.2551210350177806  0.49560376935852424  1.0000
