data_image0
_chemical_formula_structural       NC8NC6H8C6BrH5C6SCH8Zn2C4O8
_chemical_formula_sum              "N2 C31 H21 Br1 S1 Zn2 O8"
_cell_length_a       17.457602349358154
_cell_length_b       10.302969083221269
_cell_length_c       10.302812801239593
_cell_angle_alpha    85.5606946464392
_cell_angle_beta     92.87590592568559
_cell_angle_gamma    91.68807063265206

_space_group_name_H-M_alt    "P 1"
_space_group_IT_number       1

loop_
  _space_group_symop_operation_xyz
  'x, y, z'

loop_
  _atom_site_type_symbol
  _atom_site_label
  _atom_site_symmetry_multiplicity
  _atom_site_fract_x
  _atom_site_fract_y
  _atom_site_fract_z
  _atom_site_occupancy
  N   N1        1.0  0.7224250401566933  0.4523641831571328  0.6269381114150525  1.0000
  C   C1        1.0  0.6613471073764343  0.4064538852259192  0.6163257341594932  1.0000
  C   C2        1.0  0.5853635759643484  0.34934718710556223  0.6031334758088733  1.0000
  C   C3        1.0  0.5268349446586376  0.38949585331463954  0.6780075706866155  1.0000
  C   C4        1.0  0.4522894959820843  0.3345067295390549  0.6654295567272153  1.0000
  C   C5        1.0  0.3901699681943194  0.3768978074330782  0.7447240629320915  1.0000
  C   C6        1.0  0.315623306597565  0.3953603404137769  0.6889781068146641  1.0000
  C   C7        1.0  0.2570946724443012  0.4353251405712839  0.7639601214078358  1.0000
  C   C8        1.0  0.1811098556104339  0.4543933349218101  0.705999401736747  1.0000
  N   N2        1.0  0.12003097938327409  0.46971778555143917  0.6593991341221137  1.0000
  C   C9        1.0  0.2726205371669378  0.45707046925877837  0.8951964495988054  1.0000
  C   C10       1.0  0.3463824947406389  0.43899679595304386  0.9513298817659999  1.0000
  C   C11       1.0  0.4048995239583045  0.39921199071692937  0.8768054443634046  1.0000
  C   C12       1.0  0.43756132449553103  0.23869174295716222  0.5765449793845627  1.0000
  C   C13       1.0  0.4960782376411256  0.19882166548122449  0.5020707618645757  1.0000
  C   C14       1.0  0.5698389206392482  0.2539231272130855  0.51519855247394  1.0000
  H   H1        1.0  0.5391789826161429  0.464665654507201  0.7446172971793781  1.0000
  H   H2        1.0  0.3032783092190507  0.3803951435931572  0.586985747955806  1.0000
  H   H3        1.0  0.2277595632662935  0.4879430942342684  0.9540137594982099  1.0000
  H   H4        1.0  0.3582137811148242  0.45551914885099287  0.05294909744221965  1.0000
  H   H5        1.0  0.4613851365247622  0.3842249411969161  0.9228973830685896  1.0000
  H   H6        1.0  0.38107666974387766  0.19337092201236072  0.5658964965477229  1.0000
  H   H7        1.0  0.48424800952804586  0.12476796640766663  0.4342630912872112  1.0000
  H   H8        1.0  0.6146999384264872  0.22218108521560542  0.45689220670840025  1.0000
  C   C15       1.0  0.9212316691494127  0.07979361737865642  0.6431745736511916  1.0000
  C   C16       1.0  0.0007731261654388977  0.08035141906537935  0.6715483429536171  1.0000
  C   C17       1.0  0.04022997010200724  0.963690268073408  0.6856230913541361  1.0000
  C   C18       1.0  0.0007731864042888059  0.8452690620964737  0.6715481015255755  1.0000
  C   C19       1.0  0.9212316809451806  0.8422786352510772  0.6431744885423776  1.0000
  C   C20       1.0  0.8818450562218766  0.9601576598105425  0.6291246782113722  1.0000
  Br  Br1       1.0  0.14842004376356632  0.96610332964144  0.7242166534962309  1.0000
  H   H9        1.0  0.891293033190325  0.40688533263417637  0.6324943728864183  1.0000
  H   H10       1.0  0.03243707615032232  0.1710569627302203  0.6828435468867062  1.0000
  H   H11       1.0  0.03243716642844485  0.7559760325336204  0.6828429694383304  1.0000
  H   H12       1.0  0.8204996255241557  0.9587893669939035  0.6072419096437334  1.0000
  H   H13       1.0  0.8912928134722997  0.5138513308232375  0.6324962734003194  1.0000
  C   C21       1.0  0.9212316985727145  0.46103614324478026  0.26192607730013306  1.0000
  C   C22       1.0  0.8953578919378653  0.5893759866114285  0.24861641563762293  1.0000
  C   C23       1.0  0.8822861093517032  0.6530337212787514  0.1250022149089991  1.0000
  C   C24       1.0  0.8953578227720036  0.5893758473088624  0.013465240301607118  1.0000
  C   C25       1.0  0.9212316488087455  0.4610361323236749  0.02442297686688355  1.0000
  C   C26       1.0  0.934018479568115  0.3974810059634719  0.1491810656092767  1.0000
  S   S1        1.0  0.8493860635741702  0.8171098521412774  0.10950487262578168  1.0000
  C   C27       1.0  0.7484684576763313  0.7673454932592165  0.10477798060779642  1.0000
  H   H14       1.0  0.9309537764935688  0.41265318948785934  0.5942538818728786  1.0000
  H   H15       1.0  0.8850797683214167  0.6403528960884994  0.33389634321606576  1.0000
  H   H16       1.0  0.885079614718672  0.6403527023672415  0.9185460176936786  1.0000
  H   H17       1.0  0.9539621811132599  0.2984775822960677  0.15853984286696754  1.0000
  H   H18       1.0  0.9309523479648169  0.412652453114438  0.7012381797321168  1.0000
  H   H19       1.0  0.7348639500866475  0.7089962599216835  0.020020976267050683  1.0000
  H   H20       1.0  0.7348642786781191  0.7089975863242506  0.19625569512700514  1.0000
  H   H21       1.0  0.7129602742343522  0.8554062966733746  0.09494253650057205  1.0000
  Zn  Zn1       1.0  0.8371655254882437  0.45736857635573913  0.6363131574720857  1.0000
  Zn  Zn2       1.0  0.0052904798009794085  0.46470274792239596  0.6500347172352878  1.0000
  C   C28       1.0  0.9212299485088911  0.45586402292122297  0.8802946101480438  1.0000
  C   C29       1.0  0.9212278926996255  0.46620901954376825  0.4060535418243625  1.0000
  C   C30       1.0  0.921227730891213  0.6981525775447823  0.638000652522384  1.0000
  C   C31       1.0  0.9212300529479771  0.22391890261170544  0.6483475639847296  1.0000
  O   O1        1.0  0.9850291593848737  0.4707227000339622  0.45963129595953167  1.0000
  O   O2        1.0  0.9850316320003782  0.4569158295383404  0.8371308286500077  1.0000
  O   O3        1.0  0.9850289811571656  0.6525668640338742  0.6414766733998261  1.0000
  O   O4        1.0  0.9850317528584343  0.27507167232304  0.6552853491835615  1.0000
  O   O5        1.0  0.8574241950579932  0.6469996494537156  0.6310625208344876  1.0000
  O   O6        1.0  0.8574268458977367  0.45135017476530614  0.8267166068606384  1.0000
  O   O7        1.0  0.8574243733333516  0.4651570000216305  0.4492155132668183  1.0000
  O   O8        1.0  0.8574269668037688  0.26950596302471763  0.6448696638276765  1.0000
