data_image0
_chemical_formula_structural       NC9NC5H8C6NCH9C6OCH8Zn2C4O8
_chemical_formula_sum              "N3 C32 H25 O9 Zn2"
_cell_length_a       17.807436237873137
_cell_length_b       9.273386996610926
_cell_length_c       9.273891588657152
_cell_angle_alpha    85.97842517681073
_cell_angle_beta     89.08663702953788
_cell_angle_gamma    87.7895077601149

_space_group_name_H-M_alt    "P 1"
_space_group_IT_number       1

loop_
  _space_group_symop_operation_xyz
  'x, y, z'

loop_
  _atom_site_type_symbol
  _atom_site_label
  _atom_site_symmetry_multiplicity
  _atom_site_fract_x
  _atom_site_fract_y
  _atom_site_fract_z
  _atom_site_occupancy
  N   N1        1.0  0.7037466586171576  0.5273482271853733  0.3961080750265591  1.0000
  C   C1        1.0  0.6434083813377413  0.48813389190104917  0.3839336947487557  1.0000
  C   C2        1.0  0.5683541961416342  0.43935557714217266  0.3687900874684722  1.0000
  C   C3        1.0  0.551039934878153  0.35893127985568785  0.2523695181860859  1.0000
  C   C4        1.0  0.4781671328488361  0.3114465595403699  0.23757453372621784  1.0000
  C   C5        1.0  0.4215622658870445  0.3439663032562139  0.3391647575153236  1.0000
  C   C6        1.0  0.3441162973841227  0.29363080402228436  0.3235324165635549  1.0000
  C   C7        1.0  0.2813597832916279  0.38474066208163693  0.3521801485665135  1.0000
  C   C8        1.0  0.2083458607746106  0.33703046959606886  0.33740070284264645  1.0000
  C   C9        1.0  0.1445217673148651  0.4311346057784491  0.3664476496080695  1.0000
  N   N2        1.0  0.0932202222244008  0.50678783190378  0.389800598642146  1.0000
  C   C10       1.0  0.197506552671268  0.19792349915515595  0.2939458383428002  1.0000
  C   C11       1.0  0.2594058083573879  0.10679816327718128  0.26528881856204634  1.0000
  C   C12       1.0  0.3323033526528707  0.15406788752485023  0.2798441498258375  1.0000
  C   C13       1.0  0.4395642186626801  0.4249421625268386  0.45582779332387013  1.0000
  C   C14       1.0  0.5124915558447751  0.47221373545861733  0.4704503492525738  1.0000
  H   H1        1.0  0.5938064577538615  0.33321580424056063  0.1728131049958197  1.0000
  H   H2        1.0  0.4658518654664627  0.2509514553782026  0.1456327994841804  1.0000
  H   H3        1.0  0.2891723302685277  0.4933356114473644  0.3840615881978513  1.0000
  H   H4        1.0  0.1412823871143918  0.15999548183888934  0.28224564838684163  1.0000
  H   H5        1.0  0.2508938929014075  0.9991022643665175  0.23207358663415167  1.0000
  H   H6        1.0  0.3794047844875412  0.08081944600898683  0.25881646446230255  1.0000
  H   H7        1.0  0.397513589369926  0.45007184273156553  0.5368219384654573  1.0000
  H   H8        1.0  0.5253312028431114  0.5340545187148336  0.5612338318410037  1.0000
  C   C15       1.0  0.9007959383633934  0.09329837571721478  0.3936252006360921  1.0000
  C   C16       1.0  0.9143771002373382  0.17488059926066146  0.26307967914644115  1.0000
  C   C17       1.0  0.9208822893091774  0.10885780302285752  0.13264069511649357  1.0000
  C   C18       1.0  0.9139087469524553  0.9588951196462265  0.12941324548599753  1.0000
  C   C19       1.0  0.9016533036521805  0.8762759102283856  0.25948457543389036  1.0000
  C   C20       1.0  0.8961781276114988  0.9408263327618317  0.3922959156370869  1.0000
  N   N3        1.0  0.9197865915354537  0.887844726401569  0.9962935543503075  1.0000
  C   C21       1.0  0.9327220715892448  0.9637886806396552  0.8554278715383332  1.0000
  H   H9        1.0  0.9154497399117634  0.3568056247431841  0.6300279438814473  1.0000
  H   H10       1.0  0.9182154585253759  0.29130790252204974  0.2612491579397125  1.0000
  H   H11       1.0  0.930649299410072  0.17606053134574728  0.03457548509571917  1.0000
  H   H12       1.0  0.8981128039579238  0.760041218609655  0.25726807710394595  1.0000
  H   H13       1.0  0.9228102282724325  0.8112274640178212  0.742929212931835  1.0000
  H   H14       1.0  0.9144646029679928  0.7757855326517471  0.9993686566680129  1.0000
  H   H15       1.0  0.8862072703500898  0.04459170195983342  0.8311376843210594  1.0000
  H   H16       1.0  0.9871165622360716  0.018471036256230144  0.8547795554690572  1.0000
  H   H17       1.0  0.9348689772223325  0.8854684868945556  0.7700623904104327  1.0000
  C   C22       1.0  0.899739018876755  0.5131754845883041  0.9696712680755488  1.0000
  C   C23       1.0  0.9609516098661706  0.5708786946051099  0.037152667635142356  1.0000
  C   C24       1.0  0.017842651315035152  0.6395826861092826  0.9563027554081924  1.0000
  C   C25       1.0  0.013723965056550824  0.6509342536209681  0.8049103923939427  1.0000
  C   C26       1.0  0.9540950102526765  0.5922739136759652  0.7360625959760045  1.0000
  C   C27       1.0  0.8972350461909716  0.5209491884809512  0.8162497965870674  1.0000
  O   O1        1.0  0.07701254727500584  0.6956174864923899  0.030453087146669278  1.0000
  C   C28       1.0  0.13848474773817387  0.7682967249132331  0.9622553704392285  1.0000
  H   H18       1.0  0.7214662948372029  0.4339792473510773  0.08372242341567238  1.0000
  H   H19       1.0  0.9638390357620936  0.565696650357002  0.1540481932647244  1.0000
  H   H20       1.0  0.05671536285673939  0.7037539352317281  0.7392007300567385  1.0000
  H   H21       1.0  0.95344809761168  0.5997433315392084  0.6189795748560445  1.0000
  H   H22       1.0  0.7783850526748818  0.4618487437343193  0.5428402289488692  1.0000
  H   H23       1.0  0.117779537754511  0.8670157687498805  0.8980333240822898  1.0000
  H   H24       1.0  0.17021033283785858  0.695022938687349  0.8914475675684534  1.0000
  H   H25       1.0  0.17676657172248134  0.8007591240872138  0.04642180679585417  1.0000
  Zn  Zn1       1.0  0.8161403111123455  0.5214111672286115  0.39429621601480247  1.0000
  Zn  Zn2       1.0  0.9808265805743195  0.51271323753013  0.3916243262971748  1.0000
  C   C29       1.0  0.8977380094579186  0.5137310341414998  0.6562373894724804  1.0000
  C   C30       1.0  0.8992306702585146  0.5203950977366512  0.12968326228435023  1.0000
  C   C31       1.0  0.897064125884169  0.7805729807539035  0.38680318752137954  1.0000
  C   C32       1.0  0.8999045068556151  0.25355142102080497  0.3991175447159334  1.0000
  O   O2        1.0  0.9615576791117101  0.5195109512114042  0.1823707909197636  1.0000
  O   O3        1.0  0.9604040757043066  0.5080125608236796  0.6015215451327336  1.0000
  O   O4        1.0  0.9598590592656958  0.7234908656497805  0.3839515320810585  1.0000
  O   O5        1.0  0.9621026396174739  0.30403265868399276  0.39994069678881705  1.0000
  O   O6        1.0  0.834864195869864  0.7300917490444263  0.38597984642736094  1.0000
  O   O7        1.0  0.8354092030857962  0.5146151772914456  0.6035497799027545  1.0000
  O   O8        1.0  0.8365628119430255  0.5261135014753475  0.18439729273681138  1.0000
  O   O9        1.0  0.8371077721823088  0.3106351996189247  0.4019673066926879  1.0000
