data_image0
_chemical_formula_structural       NC9NC5H8C6ClH5C6NCOH7Zn2C4O8
_chemical_formula_sum              "N3 C31 H20 Cl1 O9 Zn2"
_cell_length_a       17.807436237873137
_cell_length_b       10.30297070629231
_cell_length_c       10.29962270195845
_cell_angle_alpha    85.57966836144159
_cell_angle_beta     89.41121966804023
_cell_angle_gamma    88.39001192287228

_space_group_name_H-M_alt    "P 1"
_space_group_IT_number       1

loop_
  _space_group_symop_operation_xyz
  'x, y, z'

loop_
  _atom_site_type_symbol
  _atom_site_label
  _atom_site_symmetry_multiplicity
  _atom_site_fract_x
  _atom_site_fract_y
  _atom_site_fract_z
  _atom_site_occupancy
  N   N1        1.0  0.7071414484231634  0.3868543023144957  0.5571781899720327  1.0000
  C   C1        1.0  0.6465518646347524  0.3516723517565348  0.5461546203751131  1.0000
  C   C2        1.0  0.571185081757598  0.3079098796961026  0.5324424967230266  1.0000
  C   C3        1.0  0.5530740611851911  0.2364844396883674  0.42744310150332665  1.0000
  C   C4        1.0  0.479896788517198  0.1938829648699334  0.4140468874756147  1.0000
  C   C5        1.0  0.4237818119171987  0.22232951099633236  0.5056176179036607  1.0000
  C   C6        1.0  0.3460132501713035  0.17717002092829293  0.4914629833272286  1.0000
  C   C7        1.0  0.2838417306726847  0.25890822604813457  0.5174010763140968  1.0000
  C   C8        1.0  0.2105221557327978  0.21610378247299078  0.5040185428490087  1.0000
  C   C9        1.0  0.1473006140656706  0.30053259319578496  0.5303205280292249  1.0000
  N   N2        1.0  0.0964834827233939  0.368407516240842  0.551466597647779  1.0000
  C   C10       1.0  0.1987905507441542  0.09130322839100002  0.464672567354937  1.0000
  C   C11       1.0  0.2601046988553725  0.00955117275294537  0.43872608494143495  1.0000
  C   C12       1.0  0.3333048040254794  0.05196113747997999  0.45190608653700415  1.0000
  C   C13       1.0  0.4425842778496182  0.2942492285194742  0.6108362357421573  1.0000
  C   C14       1.0  0.5158143928078603  0.33666032062214213  0.6240768040697491  1.0000
  H   H1        1.0  0.5954555881689549  0.2139837088619947  0.35573271120365124  1.0000
  H   H2        1.0  0.4669687539927629  0.14019162646849548  0.3311291532262364  1.0000
  H   H3        1.0  0.2923445740915813  0.3563510334586033  0.5462771927850665  1.0000
  H   H4        1.0  0.1423235523535734  0.05727472805118761  0.4540780235127113  1.0000
  H   H5        1.0  0.2509032863628093  0.9129278219840703  0.4086495972754136  1.0000
  H   H6        1.0  0.3799420901489213  0.9862311344396321  0.4328582942221644  1.0000
  H   H7        1.0  0.4009198731236939  0.31621149263715953  0.6838410813237397  1.0000
  H   H8        1.0  0.5292705820573663  0.3915715238230095  0.7059529465216079  1.0000
  C   C15       1.0  0.9018160421663909  0.9963833091695475  0.554327964176943  1.0000
  C   C16       1.0  0.9793959628104315  0.989572906358749  0.578203322184371  1.0000
  C   C17       1.0  0.017889048776239536  0.8692369223171186  0.590049546807732  1.0000
  C   C18       1.0  0.9793959621992127  0.7544649376974272  0.5782032611178332  1.0000
  C   C19       1.0  0.9018160501978875  0.7588682506265065  0.5543280383995224  1.0000
  C   C20       1.0  0.8634042569536484  0.880401923923733  0.5425067124746112  1.0000
  Cl  Cl1       1.0  0.11480485352641367  0.8622326234996549  0.6198754678593064  1.0000
  H   H9        1.0  0.8725930446871347  0.32625178671683663  0.5453338079172019  1.0000
  H   H10       1.0  0.010251382643362783  0.07738950812137713  0.5876990208117636  1.0000
  H   H11       1.0  0.010251352916099465  0.6621883166706013  0.5876989279449236  1.0000
  H   H12       1.0  0.8035722678472289  0.8847259860310547  0.5240932790101809  1.0000
  H   H13       1.0  0.8725930410693861  0.4332238202938516  0.5453340531570021  1.0000
  C   C21       1.0  0.9017445657387602  0.37750258695454386  0.17297224157089186  1.0000
  C   C22       1.0  0.8230254776029126  0.39124766170007064  0.1720334929031042  1.0000
  C   C23       1.0  0.783505003408584  0.4002916926879312  0.0545959863305554  1.0000
  C   C24       1.0  0.8231915913859839  0.3915180566023848  0.9368588635367971  1.0000
  C   C25       1.0  0.9018875414873397  0.37774893201366866  0.9356836700215005  1.0000
  C   C26       1.0  0.9407375556450968  0.3713393905250375  0.05425032812533348  1.0000
  N   N3        1.0  0.7028542732427762  0.41234588516549286  0.05766174814546443  1.0000
  C   C27       1.0  0.6587805032197671  0.48529495735855077  0.9602347794163268  1.0000
  O   O1        1.0  0.6890436785065013  0.5589069965409905  0.8726808787962383  1.0000
  H   H14       1.0  0.05017509536994824  0.3501881855713205  0.3821028631176786  1.0000
  H   H15       1.0  0.7920058582634288  0.39609564510161555  0.26264420480487294  1.0000
  H   H16       1.0  0.7927002933908126  0.39271764343707716  0.846453936612594  1.0000
  H   H17       1.0  0.0014222511531896131  0.36076020471582915  0.05409657675923163  1.0000
  H   H18       1.0  0.9320193708632496  0.37049830661751204  0.6079389119900735  1.0000
  H   H19       1.0  0.6743279645506599  0.37333097493493184  0.14017753560758628  1.0000
  H   H20       1.0  0.5981939582904767  0.4800683477972789  0.9640184026290735  1.0000
  Zn  Zn1       1.0  0.8194971494862331  0.38152749656964935  0.5555374583371206  1.0000
  Zn  Zn2       1.0  0.9841277654641599  0.3737237426318649  0.5531180055253231  1.0000
  C   C28       1.0  0.9018588395950444  0.37253041949632015  0.7915149380914293  1.0000
  C   C29       1.0  0.9017678731405012  0.38272237262726727  0.317140626812769  1.0000
  C   C30       1.0  0.9018112245468004  0.6147408479741943  0.5491530499679607  1.0000
  C   C31       1.0  0.901815432024753  0.14051038702903584  0.5595025849980102  1.0000
  O   O2        1.0  0.9642521561012207  0.3815070324958012  0.36460668416121256  1.0000
  O   O3        1.0  0.9643253847983112  0.3678219114243946  0.7422121982080081  1.0000
  O   O4        1.0  0.9642860930852363  0.5634099359475873  0.546503271175333  1.0000
  O   O5        1.0  0.9642913916187656  0.18591901989131343  0.56031551464818  1.0000
  O   O6        1.0  0.8393334671512767  0.5693322219746502  0.5483399500330732  1.0000
  O   O7        1.0  0.8393727588479933  0.3737457572362639  0.7440488078227856  1.0000
  O   O8        1.0  0.8392995299081795  0.38743083255945043  0.36644173242852407  1.0000
  O   O9        1.0  0.8393387654409037  0.1918428107007064  0.5621506602800088  1.0000
