data_image0
_chemical_formula_structural       NC9NC5H8C8H10C7H8Zn2C4O8
_chemical_formula_sum              "N2 C33 H26 Zn2 O8"
_cell_length_a       17.807436237873137
_cell_length_b       9.275653711864159
_cell_length_c       9.274345330872308
_cell_angle_alpha    85.30210242747421
_cell_angle_beta     88.93938532988027
_cell_angle_gamma    87.8440138982238

_space_group_name_H-M_alt    "P 1"
_space_group_IT_number       1

loop_
  _space_group_symop_operation_xyz
  'x, y, z'

loop_
  _atom_site_type_symbol
  _atom_site_label
  _atom_site_symmetry_multiplicity
  _atom_site_fract_x
  _atom_site_fract_y
  _atom_site_fract_z
  _atom_site_occupancy
  N   N1        1.0  0.7060879433271521  0.5529661522159093  0.40156945554624546  1.0000
  C   C1        1.0  0.6457442187937693  0.5139811379669885  0.38919035490181164  1.0000
  C   C2        1.0  0.570683257832924  0.46548807363680766  0.37379209800670266  1.0000
  C   C3        1.0  0.5534515238416443  0.38705456142568906  0.2568411113773186  1.0000
  C   C4        1.0  0.4805721800252782  0.33984840763431556  0.24179816652374964  1.0000
  C   C5        1.0  0.4238780883726034  0.37065680882343255  0.3436687703282544  1.0000
  C   C6        1.0  0.3464251332211246  0.3206157542797099  0.3277736440031913  1.0000
  C   C7        1.0  0.2836809042807885  0.41118679349199905  0.3568974571348862  1.0000
  C   C8        1.0  0.2106603210167499  0.36375506391913315  0.34186897733754495  1.0000
  C   C9        1.0  0.1468494720547012  0.4573116890949973  0.37140699582037806  1.0000
  N   N2        1.0  0.0955585733859373  0.5325247340683137  0.39515473406182444  1.0000
  C   C10       1.0  0.1998019642604419  0.22546603245765895  0.297687573971132  1.0000
  C   C11       1.0  0.2616889372370825  0.13487968046597643  0.2685543868398592  1.0000
  C   C12       1.0  0.3345931706084856  0.18187497017572318  0.2833563470703957  1.0000
  C   C13       1.0  0.4417975175134167  0.44963747328517156  0.46086518905159646  1.0000
  C   C14       1.0  0.5147314757400724  0.4966334927421274  0.4757344641735084  1.0000
  H   H1        1.0  0.5962878057966057  0.3626794276417493  0.17706392351309996  1.0000
  H   H2        1.0  0.4683234672268043  0.2809234300270309  0.14945216941128603  1.0000
  H   H3        1.0  0.2915104138451443  0.5191771614153549  0.38934360649868704  1.0000
  H   H4        1.0  0.1435724534496169  0.18775856959729142  0.28578946941437344  1.0000
  H   H5        1.0  0.2531618366146089  0.027809921461565912  0.2347771888404333  1.0000
  H   H6        1.0  0.3816826726049866  0.1090263999718517  0.2619483352924039  1.0000
  H   H7        1.0  0.3996753883830306  0.47340331013213377  0.5420790086539913  1.0000
  H   H8        1.0  0.5275063698289888  0.5569224828866275  0.5669273295267943  1.0000
  C   C15       1.0  0.9029414086491487  0.11925545395784765  0.3969805075839854  1.0000
  C   C16       1.0  0.8858156651905005  0.2045447912199605  0.26855429300927147  1.0000
  C   C17       1.0  0.8618917727493323  0.14151524620399503  0.14582522706490053  1.0000
  C   C18       1.0  0.8562153696563504  0.9911841808577821  0.15052993817323412  1.0000
  C   C19       1.0  0.8741631562436772  0.9046855075919459  0.27616141980380293  1.0000
  C   C20       1.0  0.898712283618354  0.9662238652848871  0.39975602737864646  1.0000
  C   C21       1.0  0.8448362575492444  0.23425036753369954  0.008601112830903368  1.0000
  C   C22       1.0  0.9155037041110703  0.2530907189152187  0.9145681822221388  1.0000
  H   H9        1.0  0.970365040800304  0.3787305207018006  0.5958977753076631  1.0000
  H   H10       1.0  0.8894294208641105  0.3212035504104267  0.2646067620184396  1.0000
  H   H11       1.0  0.838595770430827  0.9405922027953302  0.056159420684201544  1.0000
  H   H12       1.0  0.8706914028741489  0.788403343075994  0.2753376845841433  1.0000
  H   H13       1.0  0.9048383398399629  0.6649747212194191  0.6376365182880781  1.0000
  H   H14       1.0  0.8012743759012468  0.18413635466982892  0.946564430799357  1.0000
  H   H15       1.0  0.8219274443758591  0.34242046894573686  0.03455762729742151  1.0000
  H   H16       1.0  0.95906181123316  0.3065452726907256  0.9734317095425897  1.0000
  H   H17       1.0  0.9381789354747057  0.14622126230795351  0.8844990406109705  1.0000
  H   H18       1.0  0.9017305722756136  0.32164312264684125  0.8140705420332028  1.0000
  C   C23       1.0  0.9025107399586013  0.5458930167230034  0.9745484509048277  1.0000
  C   C24       1.0  0.8572566930090055  0.6498216322809709  0.04087789902170069  1.0000
  C   C25       1.0  0.8075676111268523  0.7423885563472812  0.9599501463806406  1.0000
  C   C26       1.0  0.801388656514805  0.7321067772924768  0.81107381387472  1.0000
  C   C27       1.0  0.8477877334322061  0.6321717401344413  0.7427341749106597  1.0000
  C   C28       1.0  0.8991429367361207  0.5395863515683035  0.8221880776268433  1.0000
  C   C29       1.0  0.7490988117453227  0.8338933500254573  0.7237227389367851  1.0000
  H   H19       1.0  0.9903544395194501  0.22725237925636543  0.10043456350971636  1.0000
  H   H20       1.0  0.859131584180306  0.6574598773135867  0.15668873529650829  1.0000
  H   H21       1.0  0.7732605444141685  0.8212041843893232  0.013923515080870974  1.0000
  H   H22       1.0  0.8449590706222191  0.6290330712626588  0.6263782010806085  1.0000
  H   H23       1.0  0.9610058609850126  0.3279035730404396  0.5566076782631879  1.0000
  H   H24       1.0  0.7792892896168933  0.9324105586080047  0.6844213735413827  1.0000
  H   H25       1.0  0.6996348948052747  0.8658575234676891  0.7902061969635561  1.0000
  H   H26       1.0  0.7282520117543732  0.7817076411342794  0.6292942179297354  1.0000
  Zn  Zn1       1.0  0.8184807389915484  0.5470632903799284  0.39972663971462175  1.0000
  Zn  Zn2       1.0  0.9831657710804611  0.5384157522453805  0.39700937641701883  1.0000
  C   C30       1.0  0.8998065511833847  0.5350334292744929  0.6619472667590756  1.0000
  C   C31       1.0  0.9018417475955429  0.5504473374653482  0.13478886731802042  1.0000
  C   C32       1.0  0.8995306663403552  0.8061718282722825  0.3934802517199967  1.0000
  C   C33       1.0  0.9021175845888181  0.2793072082133681  0.40325595455212526  1.0000
  O   O1        1.0  0.9641143704766539  0.5486878219531142  0.1875358070027695  1.0000
  O   O2        1.0  0.9625260641884714  0.5302285785947591  0.6071375680798883  1.0000
  O   O3        1.0  0.9623024352352804  0.7491762978717731  0.3903485728021705  1.0000
  O   O4        1.0  0.9643379436124339  0.3297401167483538  0.4043246950278805  1.0000
  O   O5        1.0  0.8373085102606789  0.755738928829562  0.3924113220234422  1.0000
  O   O6        1.0  0.8375321308647273  0.5367929427593447  0.609200246025817  1.0000
  O   O7        1.0  0.8391204443480071  0.5552521487711539  0.18959674957995287  1.0000
  O   O8        1.0  0.8393440171023016  0.33630443244674657  0.40638574577735387  1.0000
