data_image0
_chemical_formula_structural       NC9NC5H8C6SCH8C6ClH5Zn2C4O8
_chemical_formula_sum              "N2 C31 H21 S1 Cl1 Zn2 O8"
_cell_length_a       17.807436237873137
_cell_length_b       10.302809429070853
_cell_length_c       10.302974078461048
_cell_angle_alpha    85.56069480931454
_cell_angle_beta     89.39214410348855
_cell_angle_gamma    88.39000425637651

_space_group_name_H-M_alt    "P 1"
_space_group_IT_number       1

loop_
  _space_group_symop_operation_xyz
  'x, y, z'

loop_
  _atom_site_type_symbol
  _atom_site_label
  _atom_site_symmetry_multiplicity
  _atom_site_fract_x
  _atom_site_fract_y
  _atom_site_fract_z
  _atom_site_occupancy
  N   N1        1.0  0.7074118362297034  0.38734212140335056  0.5576064867148998  1.0000
  C   C1        1.0  0.6468243218029431  0.35216318078299835  0.5465861942569932  1.0000
  C   C2        1.0  0.5714601129869891  0.30840445275898865  0.5328781470100046  1.0000
  C   C3        1.0  0.5533687827789168  0.23701181312385633  0.42790993868772875  1.0000
  C   C4        1.0  0.4801940248573247  0.19441399847725926  0.4145177071338866  1.0000
  C   C5        1.0  0.4240618787521682  0.2228314089733756  0.5060612428143885  1.0000
  C   C6        1.0  0.3462959741351388  0.17767578400656903  0.4919108161931893  1.0000
  C   C7        1.0  0.2841195855776119  0.2594068904921527  0.5178411982909723  1.0000
  C   C8        1.0  0.2108025228349636  0.21660609948980847  0.5044626432587527  1.0000
  C   C9        1.0  0.1475760436808717  0.301027736175594  0.5307568092089421  1.0000
  N   N2        1.0  0.0967549427357197  0.36889689143807614  0.551896592382894  1.0000
  C   C10       1.0  0.1990783038746454  0.09181630076345337  0.465128364641193  1.0000
  C   C11       1.0  0.2603973226186536  0.010071346252823243  0.43918959560946136  1.0000
  C   C12       1.0  0.3335949535917404  0.05247771765376141  0.4523656789552182  1.0000
  C   C13       1.0  0.4428446131832419  0.2947182630487928  0.6112486086055913  1.0000
  C   C14       1.0  0.5160722425895667  0.3371257422773801  0.6244852406980805  1.0000
  H   H1        1.0  0.5957637554727571  0.21453389533322031  0.3562208450197799  1.0000
  H   H2        1.0  0.4672815395508399  0.14074860494298913  0.33162460080556055  1.0000
  H   H3        1.0  0.2926170079204428  0.35684189618336437  0.5467087297756781  1.0000
  H   H4        1.0  0.1426132943249341  0.05779068983708724  0.45453697041793895  1.0000
  H   H5        1.0  0.2512015561799361  0.9134561978117411  0.4091220492910832  1.0000
  H   H6        1.0  0.3802358157763523  0.9867528381641564  0.43332354977940524  1.0000
  H   H7        1.0  0.4011665201093334  0.3166572875309017  0.6842317732263377  1.0000
  H   H8        1.0  0.5295130778007674  0.39201135619971916  0.7063370643987945  1.0000
  C   C15       1.0  0.9020869943617041  0.996865932034781  0.5547571484862188  1.0000
  C   C16       1.0  0.9454258948831421  0.0024768067591320886  0.4398871176887005  1.0000
  C   C17       1.0  0.9667837425022288  0.8882993358807705  0.38258740518719114  1.0000
  C   C18       1.0  0.9454258001553413  0.7673256533262851  0.4398870493068099  1.0000
  C   C19       1.0  0.9020869644174999  0.759362794822475  0.5547571421099344  1.0000
  C   C20       1.0  0.8806098555895377  0.8747569831757466  0.6116064859619372  1.0000
  S   S1        1.0  0.022294188747561616  0.8969521035084853  0.23597362082770035  1.0000
  C   C21       1.0  0.9408821958850281  0.9091069732764891  0.13002692105649927  1.0000
  H   H9        1.0  0.8857299519736413  0.32206795342366434  0.5980185529436426  1.0000
  H   H10       1.0  0.9626396401749152  0.09527228886944883  0.3942589815950872  1.0000
  H   H11       1.0  0.9626394743896098  0.6799219032355536  0.39425888285844746  1.0000
  H   H12       1.0  0.8471683754284387  0.8695236181153905  0.7001976952945614  1.0000
  H   H13       1.0  0.885728724821491  0.4290522435819028  0.5980171433330821  1.0000
  H   H14       1.0  0.9064064105496742  0.8212851032024184  0.1478442216486635  1.0000
  H   H15       1.0  0.906407114112736  0.9975200315367196  0.14784373939863737  1.0000
  H   H16       1.0  0.9602805821999734  0.9161294152280443  0.027126556802310464  1.0000
  C   C22       1.0  0.9020869836693932  0.3781143744990694  0.17351462849245647  1.0000
  C   C23       1.0  0.889018866508035  0.24388885035727847  0.1829399553647828  1.0000
  C   C24       1.0  0.8825348617335848  0.17728979933260502  0.07065975372597699  1.0000
  C   C25       1.0  0.8890189001083204  0.24388892208736213  0.9478320559009119  1.0000
  C   C26       1.0  0.9020869817531036  0.3781143075732796  0.935999647593984  1.0000
  C   C27       1.0  0.9085573525907642  0.44457280403313537  0.049494531762702465  1.0000
  Cl  Cl1       1.0  0.8662096813061999  0.009610232220932158  0.08393776884250004  1.0000
  H   H17       1.0  0.9070099510373564  0.42867479219066773  0.4972672032762453  1.0000
  H   H18       1.0  0.8838213813643976  0.19050422448272397  0.27721385752818106  1.0000
  H   H19       1.0  0.8838214338623177  0.19050420347003372  0.862012890684376  1.0000
  H   H20       1.0  0.91863584307873  0.5480915585827224  0.04129711224513333  1.0000
  H   H21       1.0  0.9070098080818652  0.4286747874742063  0.6042395748913596  1.0000
  Zn  Zn1       1.0  0.8197678453004235  0.3820157622373146  0.5559662428539991  1.0000
  Zn  Zn2       1.0  0.9843989154681099  0.3742126676356734  0.5535475093172535  1.0000
  C   C28       1.0  0.9020852959811011  0.3729423133991496  0.7918736505144153  1.0000
  C   C29       1.0  0.9020832625535223  0.38328766938759795  0.3176402026684251  1.0000
  C   C30       1.0  0.9020830993429044  0.615234829509572  0.549583705716499  1.0000
  C   C31       1.0  0.9020854030147117  0.14099359610979212  0.559930217507473  1.0000
  O   O1        1.0  0.9645586468599051  0.3820569766501589  0.3650921651937966  1.0000
  O   O2        1.0  0.964561084628383  0.368249658459493  0.7425855514782993  1.0000
  O   O3        1.0  0.9645584686003364  0.5639039693445267  0.5469347191861966  1.0000
  O   O4        1.0  0.9645612067105208  0.18640267771520547  0.5607429009688596  1.0000
  O   O5        1.0  0.8396054978775083  0.5698257548220094  0.5487708520209593  1.0000
  O   O6        1.0  0.8396081139020578  0.37417300376858553  0.7444216150904965  1.0000
  O   O7        1.0  0.8396056761835753  0.3879802767146965  0.36692666792217166  1.0000
  O   O8        1.0  0.8396082360311173  0.1923259684938894  0.5625775010328411  1.0000
