data_image0
_chemical_formula_structural       NC9NC5H8C6NCH9C7H8Zn2C4O8
_chemical_formula_sum              "N3 C32 H25 Zn2 O8"
_cell_length_a       17.807436237873137
_cell_length_b       9.273386996610926
_cell_length_c       9.274345330872308
_cell_angle_alpha    85.02461752765258
_cell_angle_beta     88.93938532988027
_cell_angle_gamma    87.7895077601149

_space_group_name_H-M_alt    "P 1"
_space_group_IT_number       1

loop_
  _space_group_symop_operation_xyz
  'x, y, z'

loop_
  _atom_site_type_symbol
  _atom_site_label
  _atom_site_symmetry_multiplicity
  _atom_site_fract_x
  _atom_site_fract_y
  _atom_site_fract_z
  _atom_site_occupancy
  N   N1        1.0  0.7053777593149637  0.5540326306124626  0.3940398078163905  1.0000
  C   C1        1.0  0.6450518629446705  0.5150208439349047  0.3818497283065243  1.0000
  C   C2        1.0  0.5700130782553045  0.4664944776519302  0.3666865928860381  1.0000
  C   C3        1.0  0.552817212545064  0.38800710229239743  0.2501158957538345  1.0000
  C   C4        1.0  0.47995945648555377  0.3407685303165513  0.23530183271344818  1.0000
  C   C5        1.0  0.4232512759012341  0.37159808875642586  0.33702306017272976  1.0000
  C   C6        1.0  0.3458212049297094  0.32152266919867145  0.3213705608438868  1.0000
  C   C7        1.0  0.2830355571188305  0.41215590684106473  0.35005523496484314  1.0000
  C   C8        1.0  0.2100366647692816  0.36469160417262425  0.33525673069812867  1.0000
  C   C9        1.0  0.14618303160402318  0.4583124780891721  0.36434113438107496  1.0000
  N   N2        1.0  0.0948577373999981  0.5335771745988009  0.3877241977501613  1.0000
  C   C10       1.0  0.19924154870824884  0.22630760459846888  0.2917458298345048  1.0000
  C   C11       1.0  0.2611699475580903  0.1356590436608387  0.26305185595888325  1.0000
  C   C12       1.0  0.3340526896024916  0.18268660674701653  0.2776259567631383  1.0000
  C   C13       1.0  0.4411345865438478  0.45063299211594976  0.453836536499022  1.0000
  C   C14       1.0  0.5140470531097824  0.4976612854504807  0.468477948656431  1.0000
  H   H1        1.0  0.5956646414463277  0.36361522921664746  0.1704568921594407  1.0000
  H   H2        1.0  0.46773769055707803  0.2818030867818244  0.14324153682070473  1.0000
  H   H3        1.0  0.2908156818123956  0.5202204356817477  0.38197778667809623  1.0000
  H   H4        1.0  0.1430292818259057  0.1885742466505156  0.2800305521292652  1.0000
  H   H5        1.0  0.2526918108044849  0.028515755954762856  0.22979379198351357  1.0000
  H   H6        1.0  0.38117550584077153  0.10978800877774209  0.2565711555625163  1.0000
  H   H7        1.0  0.3990015891035885  0.47441514982833266  0.5349351260436286  1.0000
  H   H8        1.0  0.5267943765547085  0.5579916782394927  0.5593784992949828  1.0000
  C   C15       1.0  0.9024295640556134  0.1200240874275258  0.3915537316842044  1.0000
  C   C16       1.0  0.9161434860537797  0.20377823372137005  0.260839867791099  1.0000
  C   C17       1.0  0.9227813269050558  0.13992558774012553  0.13023267874097733  1.0000
  C   C18       1.0  0.9158110667491245  0.9900166003555002  0.12700106721644122  1.0000
  C   C19       1.0  0.9034233455604589  0.9052333574460104  0.2572401280834353  1.0000
  C   C20       1.0  0.8978131051389986  0.9675741601625023  0.39022273253193673  1.0000
  N   N3        1.0  0.9218242892947662  0.9211809570494415  0.9937097142075806  1.0000
  C   C21       1.0  0.9349030247075715  0.9994685334796835  0.8526623808315872  1.0000
  H   H9        1.0  0.9168429524729819  0.3795982371755404  0.6282613234262913  1.0000
  H   H10       1.0  0.9199837059163855  0.3202359918816218  0.25900698607183825  1.0000
  H   H11       1.0  0.932648065815607  0.20875985468828806  0.032041010662034575  1.0000
  H   H12       1.0  0.8998850999656937  0.7890355423366696  0.25502077151176916  1.0000
  H   H13       1.0  0.92408862428282  0.8321417061162039  0.7413081820822678  1.0000
  H   H14       1.0  0.9164991734582805  0.8090706019529308  0.9967887819628531  1.0000
  H   H15       1.0  0.8884129257196733  0.08067567751220506  0.828340870682283  1.0000
  H   H16       1.0  0.9892981746686427  0.05416167531400262  0.8520132287391058  1.0000
  H   H17       1.0  0.9371367439804488  0.9225685893796478  0.7671868183305293  1.0000
  C   C22       1.0  0.9018037905486198  0.5469546377398975  0.9670530976884311  1.0000
  C   C23       1.0  0.856502216200521  0.6509546248619633  0.03287864180000044  1.0000
  C   C24       1.0  0.8067708027134994  0.7435851180051736  0.9515020729830939  1.0000
  C   C25       1.0  0.8005965500423742  0.7332962780783565  0.802675592287664  1.0000
  C   C26       1.0  0.8470413280624978  0.6332926118919067  0.7348204942291456  1.0000
  C   C27       1.0  0.8984388714152463  0.5406436415686244  0.8147233026473879  1.0000
  C   C28       1.0  0.7482601574479394  0.835152751356641  0.7148309991650508  1.0000
  H   H18       1.0  0.989793207056383  0.22809517814655877  0.09448415816556799  1.0000
  H   H19       1.0  0.8583736143404405  0.6585981153555336  0.14865244359450802  1.0000
  H   H20       1.0  0.7724276929751088  0.8224548716084821  0.005093299475062096  1.0000
  H   H21       1.0  0.8442141005912328  0.630151787581938  0.6184797384197256  1.0000
  H   H22       1.0  0.9603985999149915  0.3288154927698761  0.550169259685974  1.0000
  H   H23       1.0  0.7784055826012902  0.9337376152931003  0.6750519672893485  1.0000
  H   H24       1.0  0.6987816230322246  0.8671388757605158  0.7811594770168493  1.0000
  H   H25       1.0  0.727437222404765  0.7829312046392094  0.6206555036369679  1.0000
  Zn  Zn1       1.0  0.8177732544059355  0.5481257150663494  0.39222561235756737  1.0000
  Zn  Zn2       1.0  0.9824622410841477  0.5394722383525279  0.3895502771572321  1.0000
  C   C29       1.0  0.8991045679507882  0.5360875926173141  0.6545045668911516  1.0000
  C   C30       1.0  0.9011327154577615  0.5515120861001079  0.1272714322096331  1.0000
  C   C31       1.0  0.8987046893196238  0.8074121922252038  0.38472292137697983  1.0000
  C   C32       1.0  0.901532547030431  0.2801857550497995  0.3970531583080694  1.0000
  O   O1        1.0  0.9634061429795814  0.549751362264512  0.18002690300883195  1.0000
  O   O2        1.0  0.9618262782530467  0.5312794422716853  0.599718164813092  1.0000
  O   O3        1.0  0.9615025227326965  0.7503775209188959  0.38186758864060755  1.0000
  O   O4        1.0  0.9637298426760855  0.3306532976992187  0.39787737186047933  1.0000
  O   O5        1.0  0.8365055966137508  0.756944658674293  0.38389851855968615  1.0000
  O   O6        1.0  0.8368293429923489  0.5378483144241357  0.6017490150532725  1.0000
  O   O7        1.0  0.8384092149310602  0.5563201970447686  0.18205601806134464  1.0000
  O   O8        1.0  0.8387329142511636  0.33722212135219287  0.3999065951391958  1.0000
