data_image0
_chemical_formula_structural       NC9NC5H8C6H6C6SCH8Zn2C4O8
_chemical_formula_sum              "N2 C31 H22 S1 Zn2 O8"
_cell_length_a       17.807436237873137
_cell_length_b       10.681118228259551
_cell_length_c       10.302812801239593
_cell_angle_alpha    85.56070456514432
_cell_angle_beta     89.39214003622364
_cell_angle_gamma    88.3900060031841

_space_group_name_H-M_alt    "P 1"
_space_group_IT_number       1

loop_
  _space_group_symop_operation_xyz
  'x, y, z'

loop_
  _atom_site_type_symbol
  _atom_site_label
  _atom_site_symmetry_multiplicity
  _atom_site_fract_x
  _atom_site_fract_y
  _atom_site_fract_z
  _atom_site_occupancy
  N   N1        1.0  0.7074119196559135  0.3382045378541074  0.5575841085974094  1.0000
  C   C1        1.0  0.646824405090728  0.30427158135918764  0.5465636386143216  1.0000
  C   C2        1.0  0.5714601961025888  0.26206272037226186  0.5328553705452908  1.0000
  C   C3        1.0  0.5533688690447964  0.19319869619893093  0.42788550902551625  1.0000
  C   C4        1.0  0.4801941109575754  0.1521096308166383  0.4144930617589453  1.0000
  C   C5        1.0  0.424061961531461  0.17952054256020156  0.5060380343624418  1.0000
  C   C6        1.0  0.3462960567369486  0.13596426057773958  0.49188737979512376  1.0000
  C   C7        1.0  0.2841196684874426  0.21480057662583985  0.5178181794544165  1.0000
  C   C8        1.0  0.2108026055751571  0.17351572400122417  0.5044394088944932  1.0000
  C   C9        1.0  0.1475761267595725  0.25494727578250487  0.5307339984851722  1.0000
  N   N2        1.0  0.0967550260865116  0.3204126096480566  0.5518741222538739  1.0000
  C   C10       1.0  0.1990783861338627  0.05314578855799512  0.46510449675416976  1.0000
  C   C11       1.0  0.2603974045699637  0.974296114960543  0.43916531002767223  1.0000
  C   C12       1.0  0.3335950357144135  0.015200517718903184  0.4523416056755729  1.0000
  C   C13       1.0  0.4428446928115269  0.2488612768581091  0.6112270568521505  1.0000
  C   C14       1.0  0.5160723223867185  0.28976674820827064  0.624463902194663  1.0000
  H   H1        1.0  0.595763844335535  0.1715169099488827  0.35619529004994166  1.0000
  H   H2        1.0  0.46728162818483926  0.10034498134316694  0.3315986502932924  1.0000
  H   H3        1.0  0.2926170912824294  0.30878458379735174  0.5466861767203923  1.0000
  H   H4        1.0  0.1426133764474563  0.020325312589996036  0.45451293188395137  1.0000
  H   H5        1.0  0.2512016377428311  0.8811029269113673  0.40909727926246764  1.0000
  H   H6        1.0  0.3802358975761414  0.9518035127073413  0.43329916904469834  1.0000
  H   H7        1.0  0.4011665970778343  0.27002325661567705  0.6842113669584644  1.0000
  H   H8        1.0  0.5295131551281033  0.34270839969462363  0.7063170149089391  1.0000
  C   C15       1.0  0.9020870712887459  0.9615584196593996  0.554734669900506  1.0000
  C   C16       1.0  0.9350671816982076  0.885538050445147  0.6573557676354733  1.0000
  C   C17       1.0  0.9350671702122694  0.7546558127942294  0.6573557084472526  1.0000
  C   C18       1.0  0.9020870586752873  0.6970488241926205  0.5547347262083266  1.0000
  C   C19       1.0  0.8691342493106055  0.7730565460396818  0.45219843119770853  1.0000
  C   C20       1.0  0.8691342607589272  0.9039488036153689  0.4521984837220563  1.0000
  H   H9        1.0  0.8687350499394878  0.2695786336160422  0.4509574946980548  1.0000
  H   H10       1.0  0.9609185927207069  0.9271323301380766  0.7377949863811619  1.0000
  H   H11       1.0  0.9609185003537862  0.6986283057632444  0.737794964802658  1.0000
  H   H12       1.0  0.8432794676231897  0.7315079634297209  0.37174870950546346  1.0000
  H   H13       1.0  0.8432794479306559  0.9599324033635093  0.3717486992376222  1.0000
  H   H14       1.0  0.8687353265377501  0.407649270086785  0.4509571394453338  1.0000
  C   C21       1.0  0.9020870828937154  0.3293036127739648  0.173486237175146  1.0000
  C   C22       1.0  0.8767509662261018  0.45534684917709445  0.16266053532674896  1.0000
  C   C23       1.0  0.863950831636273  0.5178861275210052  0.04030126309682025  1.0000
  C   C24       1.0  0.8767508984976148  0.4553467208132147  0.9275093666307703  1.0000
  C   C25       1.0  0.9020870341639156  0.3293036065613828  0.9359831415193356  1.0000
  C   C26       1.0  0.9146081386404172  0.2668880511908527  0.059513657729056924  1.0000
  S   S1        1.0  0.8317344897973541  0.6790106723011586  0.02796241993731008  1.0000
  C   C27       1.0  0.73291410243594  0.6397725920461701  0.03292381226084373  1.0000
  H   H15       1.0  0.9116071239188591  0.28178924779228653  0.5048806942925201  1.0000
  H   H16       1.0  0.8666864348357318  0.5054116258917272  0.24892719231714389  1.0000
  H   H17       1.0  0.8666862844250869  0.5054114523689037  0.8335768815408953  1.0000
  H   H18       1.0  0.9341373852006284  0.16965763672793455  0.06695778229436589  1.0000
  H   H19       1.0  0.911605725077069  0.2817886615532754  0.6118651292932604  1.0000
  H   H20       1.0  0.7195923191583703  0.5846706452660095  0.9494728578241771  1.0000
  H   H21       1.0  0.719592640921168  0.5846718961718897  0.12570754513892024  1.0000
  H   H22       1.0  0.6981438273004053  0.7277995304167764  0.026497240486159424  1.0000
  Zn  Zn1       1.0  0.819767928704499  0.3330668301618931  0.5559438383009947  1.0000
  Zn  Zn2       1.0  0.9843989988404138  0.32554010920474186  0.5535250657892907  1.0000
  C   C28       1.0  0.902085369432229  0.3243147557425241  0.7918549371312031  1.0000
  C   C29       1.0  0.9020833558787963  0.33429368153603556  0.3176140679724717  1.0000
  C   C30       1.0  0.9020831869645373  0.5580256334874858  0.5495612346320804  1.0000
  C   C31       1.0  0.9020854821694508  0.10058130177618718  0.5599078405136004  1.0000
  O   O1        1.0  0.9645587381932513  0.33310657940566357  0.3650667730489816  1.0000
  O   O2        1.0  0.9645611600473234  0.3197883060868738  0.742566065956868  1.0000
  O   O3        1.0  0.9645585554620832  0.5085128340483447  0.5469121992948476  1.0000
  O   O4        1.0  0.9645612866010647  0.14438206297101686  0.5607205431924542  1.0000
  O   O5        1.0  0.8396055847633437  0.5142248789654815  0.5487483617164104  1.0000
  O   O6        1.0  0.8396081893451163  0.32550185558876166  0.7444021591550054  1.0000
  O   O7        1.0  0.8396057675411035  0.33882008526544505  0.36690130533885945  1.0000
  O   O8        1.0  0.8396083159458392  0.15009555987383827  0.56255517281946  1.0000
