data_image0
_chemical_formula_structural       NC9NC5H8C6ClH5C6NCH9Zn2C4O8
_chemical_formula_sum              "N3 C31 H22 Cl1 Zn2 O8"
_cell_length_a       17.807436237873137
_cell_length_b       10.30297070629231
_cell_length_c       9.273390368590327
_cell_angle_alpha    86.16779528597043
_cell_angle_beta     89.39974432744097
_cell_angle_gamma    88.39001192287228

_space_group_name_H-M_alt    "P 1"
_space_group_IT_number       1

loop_
  _space_group_symop_operation_xyz
  'x, y, z'

loop_
  _atom_site_type_symbol
  _atom_site_label
  _atom_site_symmetry_multiplicity
  _atom_site_fract_x
  _atom_site_fract_y
  _atom_site_fract_z
  _atom_site_occupancy
  N   N1        1.0  0.7075436586103983  0.37199684897744945  0.39868922614592006  1.0000
  C   C1        1.0  0.646957147822382  0.3367013832440484  0.38645475572192844  1.0000
  C   C2        1.0  0.5715941874240557  0.2927977106307158  0.37123640291918014  1.0000
  C   C3        1.0  0.5535124371510837  0.22029103966011876  0.25470318887647836  1.0000
  C   C4        1.0  0.4803388988969419  0.17755161736721048  0.2398354472729498  1.0000
  C   C5        1.0  0.4241983954575403  0.2069411128203511  0.34146490434448906  1.0000
  C   C6        1.0  0.3464337795476338  0.16163586544447184  0.3257554323295295  1.0000
  C   C7        1.0  0.2842550293811916  0.24364116800041136  0.35454273472849707  1.0000
  C   C8        1.0  0.2109391850414753  0.20069891782634652  0.3396901764498741  1.0000
  C   C9        1.0  0.1477103112656217  0.28539857316402717  0.36888134333555755  1.0000
  N   N2        1.0  0.0968872851104433  0.3534912477986676  0.3923502352455037  1.0000
  C   C10       1.0  0.199218548387286  0.07549319867765059  0.29602218222594767  1.0000
  C   C11       1.0  0.2605399295050177  0.9934739592134019  0.2672255688509737  1.0000
  C   C12       1.0  0.3337363605340264  0.0360196449680279  0.2818533478377565  1.0000
  C   C13       1.0  0.442971529978633  0.2799443187506261  0.45824142184913774  1.0000
  C   C14       1.0  0.5161979539118093  0.3224917555666298  0.47293642061306174  1.0000
  H   H1        1.0  0.595913954579481  0.19705187130095214  0.17511566130651057  1.0000
  H   H2        1.0  0.4674339790476426  0.1230064338416823  0.14780948795194027  1.0000
  H   H3        1.0  0.2927498231101462  0.34138132713514735  0.3865907922853289  1.0000
  H   H4        1.0  0.142754503399151  0.04135560105384295  0.28426386454547403  1.0000
  H   H5        1.0  0.251346901325508  0.8965408959014158  0.23384528349310507  1.0000
  H   H6        1.0  0.3803789565412393  0.9700934973424483  0.2607132217044421  1.0000
  H   H7        1.0  0.4012867739574853  0.3026583500505564  0.5392655961171122  1.0000
  H   H8        1.0  0.5296313188469359  0.3782460781031223  0.5638063728958258  1.0000
  C   C15       1.0  0.9022190469007019  0.9814965056407753  0.39552591294821804  1.0000
  C   C16       1.0  0.9797923118980455  0.9749319592587022  0.42202389609568414  1.0000
  C   C17       1.0  0.01828209553490967  0.8547179616802225  0.4351713873430725  1.0000
  C   C18       1.0  0.9797923113038501  0.7398239899685481  0.4220238283211999  1.0000
  C   C19       1.0  0.902219054911508  0.743981447862041  0.3955259953238901  1.0000
  C   C20       1.0  0.8638105570552929  0.8653933910903909  0.3824061378104846  1.0000
  Cl  Cl1       1.0  0.11518958582157435  0.8480207951968961  0.46827358221430293  1.0000
  H   H9        1.0  0.8729985566896671  0.3112723658904841  0.38554377986681465  1.0000
  H   H10       1.0  0.010645084649614223  0.06284634294996394  0.43256266423159206  1.0000
  H   H11       1.0  0.01064505494823953  0.6476451505428922  0.4325625611636521  1.0000
  H   H12       1.0  0.8039837009947354  0.8695278409208735  0.36197005264369153  1.0000
  H   H13       1.0  0.8729985530035539  0.4182444019928551  0.38554405204535525  1.0000
  C   C21       1.0  0.9022538796205534  0.3586887739960174  0.9722795889491787  1.0000
  C   C22       1.0  0.9712543492612289  0.3528295860419215  0.04475867348296192  1.0000
  C   C23       1.0  0.03905129565132803  0.3590963516642123  0.9682400789261938  1.0000
  C   C24       1.0  0.03957033272116717  0.371492146923762  0.8166036401984327  1.0000
  C   C25       1.0  0.9710277763137306  0.37514010885355975  0.7433074982947416  1.0000
  C   C26       1.0  0.9021842560284228  0.36678916570977793  0.8187722572526779  1.0000
  N   N3        1.0  0.10863704556483733  0.37919339429776566  0.7346908894364401  1.0000
  C   C27       1.0  0.18281303264719573  0.37582081169067694  0.8004714230687875  1.0000
  H   H14       1.0  0.7836748974491459  0.30196186527730595  0.2600501747355082  1.0000
  H   H15       1.0  0.9728141574217212  0.3464886326987009  0.16178139974778305  1.0000
  H   H16       1.0  0.09081346043314675  0.3554414532596537  0.028518340073645065  1.0000
  H   H17       1.0  0.9715869956158574  0.3815106885066619  0.6261707610660787  1.0000
  H   H18       1.0  0.7271027636662734  0.27424884965306195  0.726131683317834  1.0000
  H   H19       1.0  0.10619945007269771  0.38791345356155293  0.6218547429405268  1.0000
  H   H20       1.0  0.18768874657137502  0.4588715700100352  0.8698605783017181  1.0000
  H   H21       1.0  0.19197695173802343  0.2825827441885116  0.8658761608330101  1.0000
  H   H22       1.0  0.2268399025736032  0.38354294620849005  0.7148640521905119  1.0000
  Zn  Zn1       1.0  0.8198998170542573  0.36665314780342784  0.39686826584040813  1.0000
  Zn  Zn2       1.0  0.984531107494243  0.35882447955744357  0.3941830445418142  1.0000
  C   C28       1.0  0.9021957245794844  0.36008604813248857  0.6587670520184346  1.0000
  C   C29       1.0  0.9022369977260015  0.3653931331909328  0.13228437050462816  1.0000
  C   C30       1.0  0.9022156718731201  0.5998007557816047  0.38978255238974846  1.0000
  C   C31       1.0  0.9022169942488423  0.1256768691429202  0.4012689478911289  1.0000
  O   O1        1.0  0.9647080487465876  0.36466657464513896  0.1849644093674767  1.0000
  O   O2        1.0  0.9646760137281932  0.354869845241899  0.6040485774243214  1.0000
  O   O3        1.0  0.9646912790807507  0.5484425576656895  0.3868417046014263  1.0000
  O   O4        1.0  0.9646927272254139  0.17109387314587488  0.4021711750394541  1.0000
  O   O5        1.0  0.8397381411425076  0.5543837568878773  0.3888801362515213  1.0000
  O   O6        1.0  0.8397228757928944  0.3608126035358641  0.6060869322253555  1.0000
  O   O7        1.0  0.8397549110038163  0.3706092711129134  0.1870010313124495  1.0000
  O   O8        1.0  0.8397395894706798  0.17703656136200374  0.40420790504409787  1.0000
