data_image0
_chemical_formula_structural       NC8NC6H8C6SCH8C7OH6Zn2C4O8
_chemical_formula_sum              "N2 C32 H22 S1 O9 Zn2"
_cell_length_a       17.457602349358154
_cell_length_b       10.302809429070853
_cell_length_c       9.274081674992354
_cell_angle_alpha    86.07103033797786
_cell_angle_beta     92.53340075860572
_cell_angle_gamma    91.68806441137123

_space_group_name_H-M_alt    "P 1"
_space_group_IT_number       1

loop_
  _space_group_symop_operation_xyz
  'x, y, z'

loop_
  _atom_site_type_symbol
  _atom_site_label
  _atom_site_symmetry_multiplicity
  _atom_site_fract_x
  _atom_site_fract_y
  _atom_site_fract_z
  _atom_site_occupancy
  N   N1        1.0  0.7270867280439399  0.44033634937612676  0.47602158692501706  1.0000
  C   C1        1.0  0.6660448290151751  0.3943322033720027  0.46424277624542665  1.0000
  C   C2        1.0  0.5901060912031998  0.3371088420536845  0.4496005231652018  1.0000
  C   C3        1.0  0.5313232469830772  0.3779152439036615  0.5327042126721933  1.0000
  C   C4        1.0  0.45682050630737586  0.32281488049567786  0.5187437171342417  1.0000
  C   C5        1.0  0.3944317574099037  0.36590252339811147  0.6067536761695136  1.0000
  C   C6        1.0  0.320074361702117  0.38387610200593736  0.54488054721836  1.0000
  C   C7        1.0  0.2612911482402115  0.42449958208629646  0.6281040181535289  1.0000
  C   C8        1.0  0.185503116758148  0.4430593941304113  0.5637726956275415  1.0000
  N   N2        1.0  0.1245824554415694  0.45797510661211027  0.51205047991427  1.0000
  C   C9        1.0  0.2763714417891651  0.4473970103065863  0.7737648503316021  1.0000
  C   C10       1.0  0.3499428179017127  0.4298156979838841  0.8360680437765169  1.0000
  C   C11       1.0  0.4087128728637242  0.3893762314245466  0.7533524434566354  1.0000
  C   C12       1.0  0.44239411925479755  0.22621833644981693  0.42008961747443685  1.0000
  C   C13       1.0  0.5011638876450556  0.18569403707186471  0.33742975682398124  1.0000
  C   C14       1.0  0.5748799960493829  0.24091156515305667  0.35200045630109744  1.0000
  H   H1        1.0  0.5434411287478673  0.4536707931063395  0.6066351779817611  1.0000
  H   H2        1.0  0.3080756467863365  0.3680155630366644  0.4316779602145042  1.0000
  H   H3        1.0  0.2313107710958527  0.4787863088850317  0.8390469143900283  1.0000
  H   H4        1.0  0.3614290885992721  0.4472301423554237  0.948856474568234  1.0000
  H   H5        1.0  0.465041996361821  0.37479346405825265  0.804510458605568  1.0000
  H   H6        1.0  0.3859456208018431  0.18080335969229733  0.40827073277793  1.0000
  H   H7        1.0  0.48956388287901254  0.11104409382269664  0.26216917851884025  1.0000
  H   H8        1.0  0.6199389758738059  0.20865732043260565  0.2872855176604996  1.0000
  C   C15       1.0  0.9258382551210602  0.06790250723250346  0.4940426277445724  1.0000
  C   C16       1.0  0.9704725042191168  0.07652741906177063  0.3712608868617635  1.0000
  C   C17       1.0  0.9924710574689476  0.9638292350844925  0.3099862860497291  1.0000
  C   C18       1.0  0.9704724077446607  0.8413762562373064  0.37126080065484546  1.0000
  C   C19       1.0  0.9258382245729815  0.8303993671851838  0.4940426174089616  1.0000
  C   C20       1.0  0.9037194479117897  0.9442992476578519  0.5548043632118838  1.0000
  S   S1        1.0  0.049638890052632334  0.9763470567617519  0.15329565582654592  1.0000
  C   C21       1.0  0.9668859469696898  0.9800164346426767  0.026843398950324282  1.0000
  H   H9        1.0  0.9089926359410905  0.39196614899354376  0.5402798555455639  1.0000
  H   H10       1.0  0.988200758206243  0.1705200180169395  0.32248997535377844  1.0000
  H   H11       1.0  0.9882005892929789  0.7551696161303373  0.32248984772308775  1.0000
  H   H12       1.0  0.869278596365465  0.9367397685809401  0.6494954464295024  1.0000
  H   H13       1.0  0.9089913879401729  0.4989503128912878  0.5402781574440603  1.0000
  H   H14       1.0  0.9316294802768753  0.8891513181006514  0.04286786405350629  1.0000
  H   H15       1.0  0.931630200174486  0.06538630749859964  0.04286740534815192  1.0000
  H   H16       1.0  0.9870389328405423  0.9879361002973415  0.9147420569987039  1.0000
  C   C22       1.0  0.9271326642312043  0.44580500737202766  0.070890194390971  1.0000
  C   C23       1.0  0.9894244650705035  0.5050721570193382  0.14506237612543593  1.0000
  C   C24       1.0  0.04737276609427199  0.5737244326290398  0.06983183451139685  1.0000
  C   C25       1.0  0.04301370846221242  0.5834609551897949  0.9183140283881444  1.0000
  C   C26       1.0  0.9823291507335095  0.5235248636299854  0.8430846994518539  1.0000
  C   C27       1.0  0.9245438152267983  0.4524968424679512  0.9171949556058059  1.0000
  C   C28       1.0  0.11145297757132644  0.6356554181674463  0.15108496718115938  1.0000
  O   O1        1.0  0.16423769760650342  0.6984854208553615  0.08652962681127674  1.0000
  H   H17       1.0  0.7454041524531664  0.3534039690406905  0.16578717535416154  1.0000
  H   H18       1.0  0.9919587902761942  0.5003653846010143  0.2623314239283585  1.0000
  H   H19       1.0  0.08692955622761023  0.6364000849550748  0.8576866801004406  1.0000
  H   H20       1.0  0.9816177268039178  0.5302012427685885  0.7259464564558167  1.0000
  H   H21       1.0  0.80340322376384  0.3850054339302391  0.631130462367874  1.0000
  H   H22       1.0  0.11368900890963185  0.6275009457732124  0.26819483019962176  1.0000
  Zn  Zn1       1.0  0.8417953831720388  0.44542309783606604  0.48642706718975015  1.0000
  Zn  Zn2       1.0  0.00987374997555035  0.4528778068410806  0.5016567970973449  1.0000
  C   C29       1.0  0.9250314475028545  0.446059763028815  0.7572251135020154  1.0000
  C   C30       1.0  0.9266395206225566  0.45224286229515176  0.23085905852503363  1.0000
  C   C31       1.0  0.9258518439545719  0.6862256389556307  0.48830004563294493  1.0000
  C   C32       1.0  0.9258190665825058  0.21207542460200268  0.4997841980219335  1.0000
  O   O2        1.0  0.990258881376996  0.45722682440926277  0.29032567379204144  1.0000
  O   O3        1.0  0.9889796793525436  0.4467327698535821  0.7093170960376893  1.0000
  O   O4        1.0  0.9896412954287477  0.6406697256874514  0.4921581231308878  1.0000
  O   O5        1.0  0.9895972082775354  0.263289874464703  0.5074845334587492  1.0000
  O   O6        1.0  0.8620718675131793  0.6350110276698713  0.48059932562360697  1.0000
  O   O7        1.0  0.8614102516684342  0.44107563105976166  0.6977582216978395  1.0000
  O   O8        1.0  0.8626894590435432  0.4515696266765681  0.27876506698617143  1.0000
  O   O9        1.0  0.8620277856104646  0.25763266830012643  0.4959240346882339  1.0000
