data_image0
_chemical_formula_structural       NC8NC6H8C6FH5C6SCH8Zn2C4O8
_chemical_formula_sum              "N2 C31 H21 F1 S1 Zn2 O8"
_cell_length_a       17.457602349358154
_cell_length_b       9.275642734913903
_cell_length_c       10.302812801239593
_cell_angle_alpha    85.47815978286455
_cell_angle_beta     92.87590592568559
_cell_angle_gamma    92.29444944329062

_space_group_name_H-M_alt    "P 1"
_space_group_IT_number       1

loop_
  _space_group_symop_operation_xyz
  'x, y, z'

loop_
  _atom_site_type_symbol
  _atom_site_label
  _atom_site_symmetry_multiplicity
  _atom_site_fract_x
  _atom_site_fract_y
  _atom_site_fract_z
  _atom_site_occupancy
  N   N1        1.0  0.7314655346762462  0.6139310772341677  0.6255705303974866  1.0000
  C   C1        1.0  0.6701018252280886  0.5629135311837024  0.6150013833817594  1.0000
  C   C2        1.0  0.5937628231996285  0.4994540518853874  0.6018628980704577  1.0000
  C   C3        1.0  0.5354841042788687  0.5440690188859341  0.6766991879992588  1.0000
  C   C4        1.0  0.46059636619729355  0.4829626815082311  0.6641729531202856  1.0000
  C   C5        1.0  0.39874070907765946  0.5300695151826169  0.7434275428674884  1.0000
  C   C6        1.0  0.3243089707420021  0.5505858953629914  0.6876642019853219  1.0000
  C   C7        1.0  0.2660291044673386  0.5949965423051673  0.762608584762245  1.0000
  C   C8        1.0  0.1901629809395462  0.616185960087529  0.7046299100211153  1.0000
  N   N2        1.0  0.12917949443181  0.633215164883075  0.6580152125354972  1.0000
  C   C9        1.0  0.2816903267863033  0.6191609097278954  0.8938244370291464  1.0000
  C   C10       1.0  0.3553397816238699  0.599076647553036  0.9499748878014658  1.0000
  C   C11       1.0  0.4136091633727604  0.5548660188987995  0.8754879127275754  1.0000
  C   C12       1.0  0.4452717775922723  0.37648884643117775  0.5753785974715899  1.0000
  C   C13       1.0  0.5035405124771416  0.33218345950661776  0.5009419225746978  1.0000
  C   C14       1.0  0.5776441841475156  0.3934146317713898  0.5140178283235166  1.0000
  H   H1        1.0  0.5482960497926184  0.6276010142498432  0.7432381328007642  1.0000
  H   H2        1.0  0.3118708198821435  0.5339559092301596  0.585685934715428  1.0000
  H   H3        1.0  0.23702152493185222  0.6534679309706164  0.9526126765229541  1.0000
  H   H4        1.0  0.3672739142693667  0.6174370141334513  0.05157854563313724  1.0000
  H   H5        1.0  0.4700014864319297  0.5382117490834859  0.9215939635987518  1.0000
  H   H6        1.0  0.3885050154751766  0.326126353182701  0.5647727898088855  1.0000
  H   H7        1.0  0.4912493241803896  0.24989172599721887  0.43320398274001315  1.0000
  H   H8        1.0  0.6223076180504606  0.3581414760238806  0.45574137162753536  1.0000
  C   C15       1.0  0.9279530331112668  0.19991424760849208  0.6421578140318471  1.0000
  C   C16       1.0  0.913098798506317  0.2825068617621307  0.5236605044251068  1.0000
  C   C17       1.0  0.9054835928885624  0.2168605989207737  0.40615423380748217  1.0000
  C   C18       1.0  0.9126652212163887  0.06791805411088503  0.4050748406268898  1.0000
  C   C19       1.0  0.9261324324400183  0.9836686988044037  0.5216428520816621  1.0000
  C   C20       1.0  0.932699284817214  0.047221212530128565  0.6414397480869265  1.0000
  F   F1        1.0  0.8920131508964289  0.2983069182481626  0.2927561885013692  1.0000
  H   H9        1.0  0.007254866051148889  0.28290518511975926  0.938618512921116  1.0000
  H   H10       1.0  0.9091804197711976  0.3989422493709074  0.5216792922273774  1.0000
  H   H11       1.0  0.907061926463055  0.01718502322490889  0.3138189672126792  1.0000
  H   H12       1.0  0.9295980967496656  0.8676768142738779  0.5183574515856129  1.0000
  H   H13       1.0  0.9830249716019254  0.7522371216234573  0.8424367696604447  1.0000
  C   C21       1.0  0.9303261732224273  0.6235677414044203  0.2605503305565471  1.0000
  C   C22       1.0  0.9052512403577053  0.7661846305145179  0.24711982101330476  1.0000
  C   C23       1.0  0.89257570645907  0.8369239102884014  0.12344567863191802  1.0000
  C   C24       1.0  0.9052511703247303  0.7661844757153682  0.011968645808459577  1.0000
  C   C25       1.0  0.930326123390478  0.6235677292684068  0.023047230133580898  1.0000
  C   C26       1.0  0.9427173441656492  0.5529424723667233  0.1478651639102897  1.0000
  S   S1        1.0  0.8606969812146751  0.019252536746081184  0.10779383832086076  1.0000
  C   C27       1.0  0.7594696083734205  0.9639521883418667  0.10311380561911831  1.0000
  H   H14       1.0  0.939747082997336  0.5698024712454339  0.5929236936812727  1.0000
  H   H15       1.0  0.8952904314176278  0.8228324185696836  0.33235174750872476  1.0000
  H   H16       1.0  0.8952902766090312  0.8228322032980853  0.9170014221687501  1.0000
  H   H17       1.0  0.9620447816088133  0.44292550550510246  0.15731716517092087  1.0000
  H   H18       1.0  0.9397456498848992  0.5698016529548413  0.6999079922338964  1.0000
  H   H19       1.0  0.7455018957898895  0.8991119491592097  0.018411744318712175  1.0000
  H   H20       1.0  0.7455022326377855  0.8991134231161888  0.19464646192969304  1.0000
  H   H21       1.0  0.7245095747824812  0.06180923340295452  0.09319544134315283  1.0000
  Zn  Zn1       1.0  0.8462371707272998  0.6194921794698154  0.6349408641976202  1.0000
  Zn  Zn2       1.0  0.014407777871895622  0.6276422340872905  0.6486555179286229  1.0000
  C   C28       1.0  0.9302922283923172  0.6178202533968065  0.8789237335972491  1.0000
  C   C29       1.0  0.9303545668213256  0.6293160694852435  0.40467292417614087  1.0000
  C   C30       1.0  0.9317981781996051  0.8870619714864654  0.6364016312459626  1.0000
  C   C31       1.0  0.9288485499198494  0.3600726152895344  0.6471950925332419  1.0000
  O   O1        1.0  0.9941839296991185  0.6343318701365619  0.45824642812128924  1.0000
  O   O2        1.0  0.9941004590377953  0.6189890672565075  0.8357589616928256  1.0000
  O   O3        1.0  0.9953156722300732  0.836405117946317  0.6399205767267462  1.0000
  O   O4        1.0  0.9929686591794203  0.4169158269861104  0.6540847110548287  1.0000
  O   O5        1.0  0.8676762320314092  0.8302185837913518  0.629511666384446  1.0000
  O   O6        1.0  0.866461028544954  0.6128042664279494  0.8253499806577427  1.0000
  O   O7        1.0  0.866544498975797  0.6281470190361038  0.44783588622546056  1.0000
  O   O8        1.0  0.8653292283951531  0.4107309655666509  0.6436742665045716  1.0000
