data_image0
_chemical_formula_structural       NC9NC5H8C7H8C6SCH8Zn2C4O8
_chemical_formula_sum              "N2 C32 H24 S1 Zn2 O8"
_cell_length_a       17.807436237873137
_cell_length_b       9.274341958901593
_cell_length_c       10.302812801239593
_cell_angle_alpha    85.528480130832
_cell_angle_beta     89.39214003622364
_cell_angle_gamma    87.76967926577302

_space_group_name_H-M_alt    "P 1"
_space_group_IT_number       1

loop_
  _space_group_symop_operation_xyz
  'x, y, z'

loop_
  _atom_site_type_symbol
  _atom_site_label
  _atom_site_symmetry_multiplicity
  _atom_site_fract_x
  _atom_site_fract_y
  _atom_site_fract_z
  _atom_site_occupancy
  N   N1        1.0  0.6987180910407026  0.5418062035788433  0.5569223471245563  1.0000
  C   C1        1.0  0.6383510265635488  0.5027105038186757  0.5459186574785793  1.0000
  C   C2        1.0  0.5632610332076865  0.45407975876082696  0.5322312623009675  1.0000
  C   C3        1.0  0.54561709069163  0.374738390030974  0.4272954550358117  1.0000
  C   C4        1.0  0.4727092733315459  0.3273978123288066  0.413923326905558  1.0000
  C   C5        1.0  0.4163990451722154  0.3589791682250796  0.5054547444172766  1.0000
  C   C6        1.0  0.3389161097145716  0.30879599826432225  0.49132562906052124  1.0000
  C   C7        1.0  0.2762275505666799  0.39962689721283207  0.5172174430228247  1.0000
  C   C8        1.0  0.203178700340101  0.3520607441398922  0.5038590884188388  1.0000
  C   C9        1.0  0.1394231903226103  0.4458817320023014  0.5301134089309723  1.0000
  N   N2        1.0  0.0881767851637514  0.5213073153254029  0.5512211591465037  1.0000
  C   C10       1.0  0.192236480630212  0.21337707662793237  0.46458370095020207  1.0000
  C   C11       1.0  0.2540677567438433  0.12253078784037141  0.4386835065261947  1.0000
  C   C12       1.0  0.3269996468471223  0.16965860734968063  0.451839574356113  1.0000
  C   C13       1.0  0.4347312948980895  0.4388697763324645  0.6106094769123247  1.0000
  C   C14       1.0  0.5076931764898579  0.4859988270149027  0.6238260939084201  1.0000
  H   H1        1.0  0.588152924669062  0.349757819722492  0.35561595801670665  1.0000
  H   H2        1.0  0.46013308667656955  0.2677574095154487  0.331054513806752  1.0000
  H   H3        1.0  0.284114393418312  0.5079101388214724  0.5460389638397594  1.0000
  H   H4        1.0  0.1359846936500991  0.17556311619030263  0.45400836627940544  1.0000
  H   H5        1.0  0.2454774321955896  0.015158684846371617  0.4086615611385531  1.0000
  H   H6        1.0  0.3740523760136585  0.09661603960298426  0.4328284884599165  1.0000
  H   H7        1.0  0.3929157174716014  0.4632514539813448  0.6835833221139871  1.0000
  H   H8        1.0  0.5207900665590955  0.5469953072840998  0.7056530262113527  1.0000
  C   C15       1.0  0.8958401756404638  0.10785511078274279  0.5542591653733371  1.0000
  C   C16       1.0  0.9047233533874649  0.19073242695304482  0.43525548631269784  1.0000
  C   C17       1.0  0.9061301406639862  0.12570417755664431  0.31762152040639435  1.0000
  C   C18       1.0  0.8978627914952301  0.9765090513683284  0.3161746077754686  1.0000
  C   C19       1.0  0.8913205647714434  0.8919006435501684  0.4341833576448262  1.0000
  C   C20       1.0  0.8910619225593884  0.9552469465209319  0.5538955413188618  1.0000
  C   C21       1.0  0.901037815701427  0.9063504914418284  0.18973771218889968  1.0000
  H   H9        1.0  0.8333101165775972  0.1893040614752446  0.8559670514970705  1.0000
  H   H10       1.0  0.9089823545475811  0.3071159919367692  0.4329615961416198  1.0000
  H   H11       1.0  0.912875045679458  0.19222544142977238  0.2273883738830651  1.0000
  H   H12       1.0  0.8881434037256577  0.7755639323980293  0.4325723956990388  1.0000
  H   H13       1.0  0.8519520084865888  0.6597116950695735  0.7586786046712706  1.0000
  H   H14       1.0  0.960135246223822  0.8736929660481515  0.16760585835706943  1.0000
  H   H15       1.0  0.8791238614178608  0.9823211876042478  0.10903785670047106  1.0000
  H   H16       1.0  0.8663672199647887  0.8090033363250229  0.1954383123183241  1.0000
  C   C22       1.0  0.8934510803543954  0.5315510436851538  0.17282887733830976  1.0000
  C   C23       1.0  0.8672961065805636  0.6767711788052504  0.1619408452889557  1.0000
  C   C24       1.0  0.8540896770244114  0.7488255207166945  0.03955064648257545  1.0000
  C   C25       1.0  0.8672960396860098  0.6767710309113968  0.9267896766564552  1.0000
  C   C26       1.0  0.8934510316649565  0.5315510365273561  0.9353257816855711  1.0000
  C   C27       1.0  0.9063776273245806  0.4596392414706625  0.05888716328894694  1.0000
  S   S1        1.0  0.8208265675663449  0.9344644239363917  0.027132124908405553  1.0000
  C   C28       1.0  0.7222610957542933  0.8892564502355422  0.03211292102937624  1.0000
  H   H17       1.0  0.9032798049433938  0.47680758660098177  0.5042468309954593  1.0000
  H   H18       1.0  0.8569063225280603  0.7344530810376173  0.24818274452413536  1.0000
  H   H19       1.0  0.8569061732447301  0.7344528811140945  0.8328324338336963  1.0000
  H   H20       1.0  0.9265385445566625  0.3476156666322001  0.0663793696985937  1.0000
  H   H21       1.0  0.9032784099101855  0.47680691116840124  0.6112312662861044  1.0000
  H   H22       1.0  0.7092972898024017  0.8257709956792787  0.9486892153012785  1.0000
  H   H23       1.0  0.7092976034385183  0.8257724369047346  0.12492390199743131  1.0000
  H   H24       1.0  0.6869189415867661  0.9906762824231454  0.025642818662215294  1.0000
  Zn  Zn1       1.0  0.8111074779092607  0.5358868172907552  0.5552846174988042  1.0000
  Zn  Zn2       1.0  0.9757874464162279  0.5272149403570903  0.5528695670593287  1.0000
  C   C29       1.0  0.8934817776842269  0.525803155001278  0.7912000443562273  1.0000
  C   C30       1.0  0.8934149346759847  0.5373003284589022  0.3169542404745562  1.0000
  C   C31       1.0  0.8919612605680194  0.7950720679051755  0.5487907684523641  1.0000
  C   C32       1.0  0.8949354053732004  0.26802968501546065  0.5593635871631928  1.0000
  O   O1        1.0  0.9558980291616199  0.5359326141991496  0.3644075325902165  1.0000
  O   O2        1.0  0.955986974997945  0.5205880268487013  0.7419134115766264  1.0000
  O   O3        1.0  0.9547582957319131  0.7380261237520966  0.5461662179096114  1.0000
  O   O4        1.0  0.9571266521753397  0.31849453057633226  0.5601546297329822  1.0000
  O   O5        1.0  0.829768215952949  0.7446072300323707  0.5479995556424591  1.0000
  O   O6        1.0  0.830996885440773  0.527170866629376  0.7437466793420089  1.0000
  O   O7        1.0  0.8309079399380342  0.5425154036977722  0.3662392394689207  1.0000
  O   O8        1.0  0.8321365630068663  0.3250773097552342  0.5619864339532448  1.0000
