data_image0
_chemical_formula_structural       NC8NC6H8C6NCH9C6SCH8Zn2C4O8
_chemical_formula_sum              "N3 C32 H25 S1 Zn2 O8"
_cell_length_a       17.457602349358154
_cell_length_b       9.273386996610926
_cell_length_c       10.302812801239593
_cell_angle_alpha    85.4662138153747
_cell_angle_beta     92.87590592568559
_cell_angle_gamma    91.0935878010965

_space_group_name_H-M_alt    "P 1"
_space_group_IT_number       1

loop_
  _space_group_symop_operation_xyz
  'x, y, z'

loop_
  _atom_site_type_symbol
  _atom_site_label
  _atom_site_symmetry_multiplicity
  _atom_site_fract_x
  _atom_site_fract_y
  _atom_site_fract_z
  _atom_site_occupancy
  N   N1        1.0  0.7134398335225738  0.6134760699455986  0.623796365316257  1.0000
  C   C1        1.0  0.6526459297195712  0.5624729070095209  0.6132833009610656  1.0000
  C   C2        1.0  0.5770156950141615  0.4990313185158488  0.6002145755012422  1.0000
  C   C3        1.0  0.5182386796831789  0.5436337074481927  0.6750018210082158  1.0000
  C   C4        1.0  0.44403342711272836  0.4825445974659315  0.6625427592146031  1.0000
  C   C5        1.0  0.3816516423795375  0.5296381505529584  0.7417455652762626  1.0000
  C   C6        1.0  0.3069907603443113  0.5501487466557793  0.6859596711104872  1.0000
  C   C7        1.0  0.2482148796728045  0.5945468731326553  0.7608552340709074  1.0000
  C   C8        1.0  0.1721120954115068  0.6157303170914332  0.7028532661881739  1.0000
  N   N2        1.0  0.1109384128285732  0.6327547209308486  0.6562198488074278  1.0000
  C   C9        1.0  0.2636062145895908  0.6187044280195471  0.8920445228881695  1.0000
  C   C10       1.0  0.3374799868797197  0.5986258280974344  0.9482170519246327  1.0000
  C   C11       1.0  0.39624314905776137  0.5544276635183705  0.8737786767907794  1.0000
  C   C12       1.0  0.4298980253068568  0.3761007800096343  0.5738654483164072  1.0000
  C   C13       1.0  0.48866159895867567  0.3318078838749581  0.49947747752559546  1.0000
  C   C14       1.0  0.5620813908598928  0.39302179355023026  0.5124860729603322  1.0000
  H   H1        1.0  0.530117671611463  0.6271421530662322  0.7414489406063836  1.0000
  H   H2        1.0  0.2947383467593888  0.5335234489294141  0.583999684881906  1.0000
  H   H3        1.0  0.21855424388665723  0.6530017772602015  0.9507950492974542  1.0000
  H   H4        1.0  0.3492090559473978  0.6169810184341222  0.04980052653923561  1.0000
  H   H5        1.0  0.452821480611877  0.5377780889556973  0.9199030353978788  1.0000
  H   H6        1.0  0.3736937526699231  0.32575248519987765  0.5633150032266072  1.0000
  H   H7        1.0  0.4772895119894723  0.2495393504507828  0.4318299994969479  1.0000
  H   H8        1.0  0.607138784190982  0.35775858218211987  0.45424839140296447  1.0000
  C   C15       1.0  0.9145514102399289  0.1995759619555164  0.6408387701218528  1.0000
  C   C16       1.0  0.9280189860995542  0.2837047441856648  0.5245499550237427  1.0000
  C   C17       1.0  0.934264765911701  0.219504781853346  0.4076648102610889  1.0000
  C   C18       1.0  0.9271374513336573  0.0688584438427966  0.4040746799846182  1.0000
  C   C19       1.0  0.9150215435357067  0.9838323029451449  0.5200659716830598  1.0000
  C   C20       1.0  0.9098342119096997  0.04664403513998039  0.6391893152558081  1.0000
  N   N3        1.0  0.9327348372473913  0.9995906100088171  0.2847129187539734  1.0000
  C   C21       1.0  0.9455122413862759  0.07810681723237023  0.1590627737381134  1.0000
  H   H9        1.0  0.9302215122601696  0.46248066550513833  0.8552642927404976  1.0000
  H   H10       1.0  0.9319310946772059  0.40054037428988765  0.5232762571695007  1.0000
  H   H11       1.0  0.9439374643395431  0.2885760303635023  0.32026660393253437  1.0000
  H   H12       1.0  0.9114012284045705  0.8672556487903086  0.5177225688466127  1.0000
  H   H13       1.0  0.9380748447715709  0.916651730211937  0.957705106687712  1.0000
  H   H14       1.0  0.9273122130741002  0.8869604908274543  0.28696278776294726  1.0000
  H   H15       1.0  0.8979634119651073  0.1543742696230419  0.1326270115131316  1.0000
  H   H16       1.0  0.0010282211621774895  0.1383510818672431  0.16380064459741406  1.0000
  H   H17       1.0  0.9474457897338153  0.0007640049645503133  0.08236108772888895  1.0000
  C   C22       1.0  0.9121928419283469  0.6231100173006807  0.2587655720656541  1.0000
  C   C23       1.0  0.8855250471014088  0.7656866991646738  0.24517828636993366  1.0000
  C   C24       1.0  0.8720594391190554  0.8364060357772043  0.1214263815848009  1.0000
  C   C25       1.0  0.885524978797357  0.7656865444091658  0.0100271113352568  1.0000
  C   C26       1.0  0.9121927922319427  0.6231100051680889  0.02126247165602857  1.0000
  C   C27       1.0  0.9253728135902173  0.5525046592818754  0.14615804249321362  1.0000
  S   S1        1.0  0.8381443187778397  0.0186832592628976  0.10557411073062273  1.0000
  C   C28       1.0  0.7375345854182767  0.9633985014015125  0.10095486869615411  1.0000
  H   H18       1.0  0.9222142461766587  0.5693599049078089  0.5911980383740556  1.0000
  H   H19       1.0  0.874931549372508  0.822318516800278  0.33034794098217724  1.0000
  H   H20       1.0  0.8749313969682407  0.8223183015893702  0.9149976158788475  1.0000
  H   H21       1.0  0.9459290104237015  0.44251870893793277  0.15573098340467695  1.0000
  H   H22       1.0  0.9222128222035597  0.5693590868479128  0.6981823378262115  1.0000
  H   H23       1.0  0.7242910616125227  0.8985765422940315  0.016324085091455887  1.0000
  H   H24       1.0  0.7242913819980629  0.8985780158354657  0.19255880108214218  1.0000
  H   H25       1.0  0.7014816043806127  0.06122795812914017  0.0909289319502431  1.0000
  Zn  Zn1       1.0  0.8281493586394004  0.6190356043682927  0.6331605858978406  1.0000
  Zn  Zn2       1.0  0.9962289393139118  0.6271833612827826  0.6468662804220247  1.0000
  C   C29       1.0  0.9122230897410771  0.6173641496528031  0.8771452932153949  1.0000
  C   C30       1.0  0.9121570335017812  0.6288567247849308  0.40288184665273086  1.0000
  C   C31       1.0  0.9107219280199702  0.8865299618095224  0.6343272183400133  1.0000
  C   C32       1.0  0.9136581475189506  0.3596891770116122  0.6456999894423969  1.0000
  O   O1        1.0  0.9759303758190542  0.6338711113573658  0.4564498368194443  1.0000
  O   O2        1.0  0.976018266118231  0.618532633994823  0.8339792364551522  1.0000
  O   O3        1.0  0.9748051991868852  0.835887389695577  0.6379018499786155  1.0000
  O   O4        1.0  0.977143385338774  0.4165163631938451  0.6525271212551522  1.0000
  O   O5        1.0  0.8472348552572175  0.8297025996783707  0.6274997403807998  1.0000
  O   O6        1.0  0.8484479125351801  0.6123495768153562  0.8235770542591396  1.0000
  O   O7        1.0  0.8483600225670009  0.6276880039201718  0.44604609381794846  1.0000
  O   O8        1.0  0.8495730321410261  0.41033324544055816  0.6421234756105718  1.0000
