data_image0
_chemical_formula_structural       NC8NC6H8C7NH5C6FH5Zn2C4O8
_chemical_formula_sum              "N3 C31 H18 F1 Zn2 O8"
_cell_length_a       17.457602349358154
_cell_length_b       10.302819778424748
_cell_length_c       9.275646106892307
_cell_angle_alpha    84.95237356290208
_cell_angle_beta     92.91404810424501
_cell_angle_gamma    91.68806980205999

_space_group_name_H-M_alt    "P 1"
_space_group_IT_number       1

loop_
  _space_group_symop_operation_xyz
  'x, y, z'

loop_
  _atom_site_type_symbol
  _atom_site_label
  _atom_site_symmetry_multiplicity
  _atom_site_fract_x
  _atom_site_fract_y
  _atom_site_fract_z
  _atom_site_occupancy
  N   N1        1.0  0.7221033678131344  0.4670062560945796  0.4735146572121469  1.0000
  C   C1        1.0  0.6610229490479463  0.4212082994160813  0.4617164614723077  1.0000
  C   C2        1.0  0.5850363273052755  0.36424125232125015  0.4470501107958105  1.0000
  C   C3        1.0  0.526525236581803  0.40359320306416047  0.5302905239303495  1.0000
  C   C4        1.0  0.4519768414655154  0.3487372201891552  0.5163070527180722  1.0000
  C   C5        1.0  0.38987588982008203  0.39028454433638093  0.6044618072401775  1.0000
  C   C6        1.0  0.3153161685631009  0.4093409553243068  0.5424868911898852  1.0000
  C   C7        1.0  0.2568051002750946  0.4485078881709408  0.6258472827808703  1.0000
  C   C8        1.0  0.1808067049266384  0.46819355320307077  0.5614101291765945  1.0000
  N   N2        1.0  0.1197169116091481  0.4840144485604496  0.5096028255510929  1.0000
  C   C9        1.0  0.2723617096150669  0.46885606181520023  0.7717477509939576  1.0000
  C   C10       1.0  0.34613681762143317  0.4501843900935161  0.8341534391161789  1.0000
  C   C11       1.0  0.40463638816964614  0.4111925822639817  0.7513017536876714  1.0000
  C   C12       1.0  0.43722784737553855  0.25386733380915905  0.4174906380157368  1.0000
  C   C13       1.0  0.49572731361700206  0.21478971773899436  0.33469478394278895  1.0000
  C   C14       1.0  0.5694910718504631  0.269752185900727  0.3492894629834673  1.0000
  H   H1        1.0  0.5388848788975354  0.4780547988961561  0.6043431279788454  1.0000
  H   H2        1.0  0.3029472775184883  0.39546160733734315  0.42909806761056646  1.0000
  H   H3        1.0  0.2275145147130454  0.4991028176886638  0.8371372181281651  1.0000
  H   H4        1.0  0.3579919102396655  0.46562489011494557  0.9471274253841448  1.0000
  H   H5        1.0  0.4611327987390781  0.3957145058403131  0.8025439286127187  1.0000
  H   H6        1.0  0.3807406981782787  0.20865924712099582  0.40565230242474914  1.0000
  H   H7        1.0  0.48388120049942646  0.141456996489294  0.2593103796743623  1.0000
  H   H8        1.0  0.6143384303458033  0.23863055941814992  0.28446805413090925  1.0000
  C   C15       1.0  0.920913801928504  0.09425740277189698  0.49156528629494556  1.0000
  C   C16       1.0  0.8761576994256469  0.08123218785983122  0.6138925251381093  1.0000
  C   C17       1.0  0.8538910974147467  0.9576494395458679  0.6747514817785292  1.0000
  C   C18       1.0  0.87615776134811  0.845931180652589  0.6138925354882891  1.0000
  C   C19       1.0  0.9209138145838632  0.8567534300842302  0.4915653303420311  1.0000
  C   C20       1.0  0.9430580394246011  0.9814050395293914  0.43104086576616885  1.0000
  C   C21       1.0  0.8080096054528969  0.9454257962538003  0.8001548853030354  1.0000
  N   N3        1.0  0.7711358993702115  0.9356020181365731  0.9009380836050225  1.0000
  H   H9        1.0  0.9378663214404301  0.4265134737127301  0.445230087132636  1.0000
  H   H10       1.0  0.8585063914832404  0.16695386270384693  0.6621367919158199  1.0000
  H   H11       1.0  0.8585064872309565  0.7508042630039007  0.6621367663178064  1.0000
  H   H12       1.0  0.9775723641774553  0.990600180043005  0.33670650635506405  1.0000
  H   H13       1.0  0.9378663918476472  0.533530395085795  0.4452302032201154  1.0000
  C   C22       1.0  0.9208245149242001  0.47956517182269964  0.06771676781007385  1.0000
  C   C23       1.0  0.991073619043437  0.4961392819986872  0.14615356597525264  1.0000
  C   C24       1.0  0.06037172734857532  0.5004822007075334  0.07699737860943734  1.0000
  C   C25       1.0  0.06063776138761412  0.48819697364580095  0.9286452688897953  1.0000
  C   C26       1.0  0.9915909131640873  0.4738390162702313  0.8483856309338313  1.0000
  C   C27       1.0  0.9210030693515129  0.4714457246645114  0.9154138560923406  1.0000
  F   F1        1.0  0.12755977024031684  0.5150776180842931  0.15453070987159379  1.0000
  H   H14       1.0  0.7429197980638038  0.36647806112334913  0.1647226907827941  1.0000
  H   H15       1.0  0.9924357310137901  0.5026541454199007  0.262204446254122  1.0000
  H   H16       1.0  0.11443913489943447  0.491041495367575  0.8752130231619821  1.0000
  H   H17       1.0  0.9933404723385683  0.4677082356197044  0.7326114980546983  1.0000
  H   H18       1.0  0.8005614155049359  0.400620847914664  0.6296365799175079  1.0000
  Zn  Zn1       1.0  0.8368460494152782  0.4719108915764876  0.48393725674943044  1.0000
  Zn  Zn2       1.0  0.004974218246393214  0.4790990553093051  0.49919204286839935  1.0000
  C   C28       1.0  0.9209676299116257  0.4678082802273431  0.7551808037755339  1.0000
  C   C29       1.0  0.9208544737342874  0.4832033819177226  0.22794880408879692  1.0000
  C   C30       1.0  0.9209086492353904  0.7126804092399839  0.4858133545646057  1.0000
  C   C31       1.0  0.9209133970563207  0.23832968988676395  0.4973163250451458  1.0000
  O   O1        1.0  0.9846682920486477  0.48714660511650054  0.2875132510324008  1.0000
  O   O2        1.0  0.9847592014315226  0.4693197315338469  0.7071939710367154  1.0000
  O   O3        1.0  0.9847107140004671  0.6670570213942779  0.4896777719384724  1.0000
  O   O4        1.0  0.9847167220861497  0.2894093231272039  0.5050293367042558  1.0000
  O   O5        1.0  0.8571034882016274  0.6616006213071075  0.47809995770027225  1.0000
  O   O6        1.0  0.857151975612991  0.4638648920135129  0.695616079839793  1.0000
  O   O7        1.0  0.8570610659155634  0.48169173697749157  0.2759336245192996  1.0000
  O   O8        1.0  0.8571094959727251  0.2839544446655784  0.49344981840424107  1.0000
