data_image0
_chemical_formula_structural       NC8NC6H8C8H10C8H10Zn2C4O8
_chemical_formula_sum              "N2 C34 H28 Zn2 O8"
_cell_length_a       17.457602349358154
_cell_length_b       9.275653711864159
_cell_length_c       9.275657083861812
_cell_angle_alpha    86.03202775307278
_cell_angle_beta     92.37146316173272
_cell_angle_gamma    91.13236207428555

_space_group_name_H-M_alt    "P 1"
_space_group_IT_number       1

loop_
  _space_group_symop_operation_xyz
  'x, y, z'

loop_
  _atom_site_type_symbol
  _atom_site_label
  _atom_site_symmetry_multiplicity
  _atom_site_fract_x
  _atom_site_fract_y
  _atom_site_fract_z
  _atom_site_occupancy
  N   N1        1.0  0.7212771407582483  0.6050453576523891  0.48043779134914133  1.0000
  C   C1        1.0  0.6605137603358194  0.5540143693399895  0.4685199385071839  1.0000
  C   C2        1.0  0.5849214505798219  0.4905382143220014  0.45370473419285773  1.0000
  C   C3        1.0  0.5257798328933175  0.5355223484306446  0.5369293396538029  1.0000
  C   C4        1.0  0.4516104547110006  0.47440063513490727  0.5228023047987918  1.0000
  C   C5        1.0  0.3888424749940975  0.5218985544072006  0.6109399308107573  1.0000
  C   C6        1.0  0.3144784825835469  0.5420933326774591  0.5491233359592986  1.0000
  C   C7        1.0  0.2553373468945428  0.5868739125209794  0.6324671644468196  1.0000
  C   C8        1.0  0.17954318031606442  0.6077290748789783  0.5681942345982123  1.0000
  N   N2        1.0  0.11861762221784611  0.6244895453016412  0.5165189472657472  1.0000
  C   C9        1.0  0.2700640461719416  0.6117323497600311  0.7781925515390637  1.0000
  C   C10       1.0  0.3436391372531067  0.5919714248817824  0.8404403854994014  1.0000
  C   C11       1.0  0.4027652918789998  0.5473931826040823  0.7576049684611454  1.0000
  C   C12       1.0  0.4378825529285862  0.367535106346629  0.4238587121006512  1.0000
  C   C13       1.0  0.4970088154673132  0.3228624618772704  0.34107877575809264  1.0000
  C   C14       1.0  0.5703899598541154  0.3841118971291795  0.3558163493703539  1.0000
  H   H1        1.0  0.5373552166489501  0.6193446229143214  0.6110874533681931  1.0000
  H   H2        1.0  0.3027436184328792  0.524922069179296  0.4358764425372672  1.0000
  H   H3        1.0  0.22472531189698583  0.6463300140361783  0.8435675820309139  1.0000
  H   H4        1.0  0.3548533981613067  0.6108695302453429  0.953277846215816  1.0000
  H   H5        1.0  0.45909829509878186  0.5310045511552604  0.8087170831185757  1.0000
  H   H6        1.0  0.3817092997141217  0.31715840422921615  0.4119025722874654  1.0000
  H   H7        1.0  0.48594709498625543  0.24027284280408678  0.2655944442534939  1.0000
  H   H8        1.0  0.6157310272120065  0.3485517230354489  0.29100580386810315  1.0000
  C   C15       1.0  0.9221091168784971  0.19147717804079112  0.49732942322122864  1.0000
  C   C16       1.0  0.9047120738242529  0.27337170231491026  0.36718268476876714  1.0000
  C   C17       1.0  0.8803762708566153  0.20632235697695234  0.2419849103626901  1.0000
  C   C18       1.0  0.87458248911067  0.055468764293833406  0.2460649532431951  1.0000
  C   C19       1.0  0.8928198012365506  0.9724136301851158  0.3735098534735293  1.0000
  C   C20       1.0  0.9177929642971474  0.03804698482703972  0.4996403822290698  1.0000
  C   C21       1.0  0.8630559841951431  0.295557702891462  0.1030580568258177  1.0000
  C   C22       1.0  0.9352053132114432  0.3204510428658367  0.01684263486636528  1.0000
  H   H9        1.0  0.9907789735722486  0.46040733634805653  0.7033732438205138  1.0000
  H   H10       1.0  0.9084011091383931  0.3903509744730327  0.3636339307440828  1.0000
  H   H11       1.0  0.8566618366731948  0.001865488623499445  0.14988085006246177  1.0000
  H   H12       1.0  0.8892784073497405  0.8557646934459082  0.37230832270801884  1.0000
  H   H13       1.0  0.9239045896564926  0.7404593624423571  0.7379154681367206  1.0000
  H   H14       1.0  0.8186503143850411  0.24018244725242366  0.03634046789941281  1.0000
  H   H15       1.0  0.8396694068772382  0.40170784461924747  0.12648551777571204  1.0000
  H   H16       1.0  0.9796089751993285  0.37912599579518447  0.0803903084526163  1.0000
  H   H17       1.0  0.9583559796466288  0.2155251417411641  0.9892817968085281  1.0000
  H   H18       1.0  0.9212123737644295  0.3863087539385244  0.9149580810449409  1.0000
  C   C23       1.0  0.9219150944538137  0.6126847289478801  0.07533644902210401  1.0000
  C   C24       1.0  0.9610707677016911  0.7245086525277509  0.1441832482937504  1.0000
  C   C25       1.0  0.9934250572947468  0.8421706696420275  0.06375316796448738  1.0000
  C   C26       1.0  0.9877665916097745  0.8470810454173037  0.9126170129070155  1.0000
  C   C27       1.0  0.9502635966260234  0.7359835283503318  0.8424697444802187  1.0000
  C   C28       1.0  0.917986990595229  0.6168394534901358  0.9216334130134989  1.0000
  C   C29       1.0  0.036096310344799765  0.9598783322874584  0.1391969549247567  1.0000
  C   C30       1.0  0.12052128970657239  0.9228677275370825  0.16457659244239342  1.0000
  H   H19       1.0  0.8886724128384662  0.3810470119627234  0.3694106547013287  1.0000
  H   H20       1.0  0.9650485632468603  0.7220302561516834  0.26126095210393263  1.0000
  H   H21       1.0  0.01316510987152153  0.9364461089020717  0.8488184199138749  1.0000
  H   H22       1.0  0.9482619568606696  0.7415043558046492  0.7253315970401828  1.0000
  H   H23       1.0  0.8283088894691627  0.4462824525182407  0.6451252444954783  1.0000
  H   H24       1.0  0.03136392960637524  0.06431706413838567  0.07326102044882865  1.0000
  H   H25       1.0  0.010512333475524605  0.9749554795003292  0.24480237699308782  1.0000
  H   H26       1.0  0.12650215667458498  0.8205926937487071  0.23354048584182618  1.0000
  H   H27       1.0  0.14757010574020257  0.9109218140319852  0.05981563522494926  1.0000
  H   H28       1.0  0.15091280811891217  0.010904565370624564  0.22017921709147892  1.0000
  Zn  Zn1       1.0  0.8359410018038558  0.6106527055009916  0.49085834293590236  1.0000
  Zn  Zn2       1.0  0.0039537524189654505  0.6188704371004605  0.5061101607544309  1.0000
  C   C31       1.0  0.9187570546142819  0.6103116613110222  0.7616493117828826  1.0000
  C   C32       1.0  0.9211395243734344  0.6192133904651176  0.23531950485227582  1.0000
  C   C33       1.0  0.9186315207890507  0.8779989166409379  0.49346110737984983  1.0000
  C   C34       1.0  0.9212650093405611  0.351524400891142  0.5035077761471991  1.0000
  O   O1        1.0  0.9846392312836164  0.6245167666836611  0.29479924806213575  1.0000
  O   O2        1.0  0.9827751453399364  0.6112442637773283  0.7137449276243384  1.0000
  O   O3        1.0  0.9826729087192061  0.8274050731393083  0.49718098115834786  1.0000
  O   O4        1.0  0.9847414110218835  0.4083559642985515  0.5113630813096492  1.0000
  O   O5        1.0  0.8551532858664591  0.8211671755001237  0.48560541716841166  1.0000
  O   O6        1.0  0.8552555140108149  0.6050080975794268  0.7021692915302398  1.0000
  O   O7        1.0  0.8571196083027975  0.6182805417524084  0.28322187938100307  1.0000
  O   O8        1.0  0.8572217875890489  0.4021197295876513  0.49978582063472166  1.0000
