data_image0
_chemical_formula_structural       NC9NC5H8C7F3H5C6NCOH7Zn2C4O8
_chemical_formula_sum              "N3 C32 H20 F3 O9 Zn2"
_cell_length_a       17.807436237873137
_cell_length_b       9.27228830945605
_cell_length_c       10.29962270195845
_cell_angle_alpha    85.28125625353758
_cell_angle_beta     89.41121966804023
_cell_angle_gamma    87.81380667828488

_space_group_name_H-M_alt    "P 1"
_space_group_IT_number       1

loop_
  _space_group_symop_operation_xyz
  'x, y, z'

loop_
  _atom_site_type_symbol
  _atom_site_label
  _atom_site_symmetry_multiplicity
  _atom_site_fract_x
  _atom_site_fract_y
  _atom_site_fract_z
  _atom_site_occupancy
  N   N1        1.0  0.6990961507744891  0.5421572954543585  0.5500339113403527  1.0000
  C   C1        1.0  0.6387106614346639  0.5030355927414438  0.5391915789917676  1.0000
  C   C2        1.0  0.5635977495755251  0.45437250286784825  0.5257048945177469  1.0000
  C   C3        1.0  0.5459010760066866  0.37494868509179224  0.42107344223477394  1.0000
  C   C4        1.0  0.47297093928124695  0.32757660348327655  0.40789668659264366  1.0000
  C   C5        1.0  0.4166909410706273  0.35920865637166766  0.499320876716278  1.0000
  C   C6        1.0  0.3391843546011929  0.30899210734326643  0.4853988779541285  1.0000
  C   C7        1.0  0.2765386625897441  0.39988353633659357  0.5109159025481205  1.0000
  C   C8        1.0  0.203467401036976  0.35228575708385756  0.4977538730473381  1.0000
  C   C9        1.0  0.1397560783515725  0.4461690916096257  0.5236209293764564  1.0000
  N   N2        1.0  0.0885451969536  0.5216447977293306  0.5444173462870596  1.0000
  C   C10       1.0  0.192459778086412  0.2135097626386646  0.45905079849121  1.0000
  C   C11       1.0  0.2542481790588728  0.12260293211565076  0.4335254558205177  1.0000
  C   C12       1.0  0.3272022592579864  0.16976205791178445  0.4464869855807514  1.0000
  C   C13       1.0  0.43507619264006964  0.43918210194575  0.6041690053835331  1.0000
  C   C14       1.0  0.5080602760872859  0.4863424813635182  0.6171910960681961  1.0000
  H   H1        1.0  0.5884131322583834  0.3499282729698874  0.34947896280632085  1.0000
  H   H2        1.0  0.46035437424417924  0.2678727909917251  0.3252555393510046  1.0000
  H   H3        1.0  0.2844762293331953  0.5082382035044584  0.5392900495147002  1.0000
  H   H4        1.0  0.1361901828500882  0.1756706760346618  0.4486315499827771  1.0000
  H   H5        1.0  0.2456072894816949  0.015159486145307044  0.4039467162878563  1.0000
  H   H6        1.0  0.374220852515152  0.09667146465354426  0.42777779657514015  1.0000
  H   H7        1.0  0.393284382352097  0.4636037486733551  0.6770607139658085  1.0000
  H   H8        1.0  0.5211979192766466  0.547402761796056  0.6987843674679095  1.0000
  C   C15       1.0  0.8960359106262125  0.10796050222464149  0.549195168343392  1.0000
  C   C16       1.0  0.9317213862521212  0.18805278657504854  0.4461069343004307  1.0000
  C   C17       1.0  0.9599848428080767  0.12090839521246677  0.33859793462657284  1.0000
  C   C18       1.0  0.9522870347661346  0.9721060883894278  0.3304078741963148  1.0000
  C   C19       1.0  0.9193430611396333  0.8901875652345449  0.43510960786382724  1.0000
  C   C20       1.0  0.8916126930566156  0.9558301604093378  0.5452673317508916  1.0000
  C   C21       1.0  0.9847471029971753  0.8988130850095403  0.21586845695014611  1.0000
  F   F1        1.0  0.9840756764478094  0.9934073995148707  0.10462932924889357  1.0000
  F   F2        1.0  0.9433619727246061  0.7806306356506476  0.19170993480636178  1.0000
  F   F3        1.0  0.05803139769895593  0.8524062189609946  0.24293451408625422  1.0000
  H   H9        1.0  0.7697401449307661  0.19727533702472222  0.7846084721961344  1.0000
  H   H10       1.0  0.9364616819202374  0.30406787751619535  0.44738235475554133  1.0000
  H   H11       1.0  0.9873514189820694  0.18591585262785437  0.26114035337121  1.0000
  H   H12       1.0  0.9169413479869856  0.7738741743828793  0.43222408706995696  1.0000
  H   H13       1.0  0.8566738375291859  0.8280990377931015  0.8602808762756355  1.0000
  C   C22       1.0  0.8937535184417418  0.5317583544529179  0.16587613761776643  1.0000
  C   C23       1.0  0.8149546935827602  0.547042632880727  0.1648665822014752  1.0000
  C   C24       1.0  0.7753817539483927  0.557099434337786  0.04738248596393868  1.0000
  C   C25       1.0  0.815119238774619  0.5473433071985419  0.9296905599155805  1.0000
  C   C26       1.0  0.893895065114952  0.5320322857732411  0.9285862970397978  1.0000
  C   C27       1.0  0.9327822617431251  0.5249049897402591  0.04718597342840636  1.0000
  N   N3        1.0  0.6946610960574917  0.57050348178463  0.05038615148683201  1.0000
  C   C28       1.0  0.6501641402693967  0.6516215514271315  0.9525833909410633  1.0000
  O   O1        1.0  0.6800002838450417  0.7334768285597173  0.8646502832783258  1.0000
  H   H14       1.0  0.04234250198467615  0.5013852263645469  0.37514746730802107  1.0000
  H   H15       1.0  0.783906950546796  0.5524335041196575  0.25545232007088536  1.0000
  H   H16       1.0  0.784620981841422  0.5486772264037281  0.8392794534074257  1.0000
  H   H17       1.0  0.9935283282968816  0.5131411234506202  0.047086719965214296  1.0000
  H   H18       1.0  0.9240689561835382  0.5239697194080295  0.6008788900754571  1.0000
  H   H19       1.0  0.666361117243732  0.5271195961499635  0.1331029214090531  1.0000
  H   H20       1.0  0.5896079154894858  0.6458096546388712  0.9563939386511722  1.0000
  Zn  Zn1       1.0  0.8114827532362584  0.5362339822936517  0.5484206203561235  1.0000
  Zn  Zn2       1.0  0.9761586396676869  0.5275563468369198  0.5460413680126894  1.0000
  C   C29       1.0  0.8938966364001746  0.5262293927536801  0.7844444478957586  1.0000
  C   C30       1.0  0.8937465452802481  0.537562663198591  0.31001763351504463  1.0000
  C   C31       1.0  0.8924439314391216  0.7955630774016691  0.5408348304429318  1.0000
  C   C32       1.0  0.8951992031103385  0.2682272470604843  0.5536273290510354  1.0000
  O   O2        1.0  0.956237878565638  0.5362112266078327  0.357489951599397  1.0000
  O   O3        1.0  0.9563904961878622  0.5209936155983523  0.7351659635477237  1.0000
  O   O4        1.0  0.9552165763662833  0.7384840170187237  0.538449479093998  1.0000
  O   O5        1.0  0.9574117421225449  0.31872083844085  0.5542063394460175  1.0000
  O   O6        1.0  0.830229594585593  0.7450694936525417  0.5402556497278796  1.0000
  O   O7        1.0  0.8314035053423263  0.5275808266851083  0.7369720569035254  1.0000
  O   O8        1.0  0.8312508877427696  0.5427983868233819  0.35929448384340157  1.0000
  O   O9        1.0  0.8324247513685405  0.3253079883658314  0.5560109691022117  1.0000
