data_image0
_chemical_formula_structural       NC8NC6H8C6NCOH7C6SCH8Zn2C4O8
_chemical_formula_sum              "N3 C32 H23 O9 S1 Zn2"
_cell_length_a       17.457602349358154
_cell_length_b       10.299619329790078
_cell_length_c       10.302812801239593
_cell_angle_alpha    85.56660586628533
_cell_angle_beta     92.87590592568559
_cell_angle_gamma    91.71362633690529

_space_group_name_H-M_alt    "P 1"
_space_group_IT_number       1

loop_
  _space_group_symop_operation_xyz
  'x, y, z'

loop_
  _atom_site_type_symbol
  _atom_site_label
  _atom_site_symmetry_multiplicity
  _atom_site_fract_x
  _atom_site_fract_y
  _atom_site_fract_z
  _atom_site_occupancy
  N   N1        1.0  0.7228126669131015  0.4528419608231671  0.627120040669096  1.0000
  C   C1        1.0  0.6617224809665369  0.40691655998921905  0.6165019124962718  1.0000
  C   C2        1.0  0.585723708140198  0.34979107573707835  0.6033025007201473  1.0000
  C   C3        1.0  0.5272057922579582  0.389952949471003  0.6781816247889003  1.0000
  C   C4        1.0  0.4526456673342666  0.3349457361724739  0.6655967226602759  1.0000
  C   C5        1.0  0.39053745345537894  0.3773507592673577  0.7448965389500939  1.0000
  C   C6        1.0  0.31599571939116583  0.39581936578389465  0.6891528955273005  1.0000
  C   C7        1.0  0.2574777515886943  0.4357973129806667  0.7641399162796472  1.0000
  C   C8        1.0  0.1814980239345329  0.4548717801087079  0.7061815851708859  1.0000
  N   N2        1.0  0.1204232377057084  0.4702012719534401  0.6595832371614756  1.0000
  C   C9        1.0  0.2730094200011519  0.4575497951304317  0.8953789683820659  1.0000
  C   C10       1.0  0.34676655382648375  0.4394701762102644  0.9515101365648273  1.0000
  C   C11       1.0  0.405272964732856  0.399672283146999  0.8769807155499791  1.0000
  C   C12       1.0  0.43789192343764244  0.23909922976849307  0.5767001431288905  1.0000
  C   C13       1.0  0.49639819551332554  0.19921603641378205  0.50222093131509  1.0000
  C   C14       1.0  0.5701735847408722  0.2543356246238959  0.5153556241656045  1.0000
  H   H1        1.0  0.5395698925569576  0.4651474789325387  0.7448007673675292  1.0000
  H   H2        1.0  0.3036467278968713  0.3808492459302699  0.5871586620648643  1.0000
  H   H3        1.0  0.2281566858076139  0.4884325761335049  0.954200145516491  1.0000
  H   H4        1.0  0.3586022499114953  0.45599796439179907  0.05313142190055242  1.0000
  H   H5        1.0  0.4617545773511871  0.38468030340519777  0.9230707769142246  1.0000
  H   H6        1.0  0.381395172847339  0.19376349983853158  0.5660459832151559  1.0000
  H   H7        1.0  0.48454820293930356  0.12513797623030798  0.43440398445951134  1.0000
  H   H8        1.0  0.6150261307791351  0.2225831405906531  0.4570453022582064  1.0000
  C   C15       1.0  0.9215198591931694  0.08014883219343383  0.6433098331471283  1.0000
  C   C16       1.0  0.8845146773698249  0.08662467132545548  0.5187805499241882  1.0000
  C   C17       1.0  0.8670131704550088  0.973209311296378  0.4552284997884055  1.0000
  C   C18       1.0  0.8847431614944845  0.8514761894658149  0.5188991479449305  1.0000
  C   C19       1.0  0.9217233464923268  0.8428847294024818  0.6434052952259881  1.0000
  C   C20       1.0  0.9401743400691817  0.957844301763144  0.7046836071464015  1.0000
  N   N3        1.0  0.8280810078439497  0.9835880065533998  0.32862078898382796  1.0000
  C   C21       1.0  0.8401443379874988  0.8994362705661172  0.22745368378503206  1.0000
  O   O1        1.0  0.8940068370342069  0.8200634511043443  0.23730919704465148  1.0000
  H   H9        1.0  0.9905939841074741  0.2751033354237551  0.878791979470448  1.0000
  H   H10       1.0  0.8696470135913862  0.18007772530296373  0.4699830936638334  1.0000
  H   H11       1.0  0.8683373758257169  0.7633665152106358  0.47265106376532806  1.0000
  H   H12       1.0  0.9687102421993474  0.9519770116533736  0.8006752905644821  1.0000
  H   H13       1.0  0.9348886534580956  0.5120234469409832  0.6920307488970634  1.0000
  H   H14       1.0  0.7925683618461303  0.062639083537535  0.30469483984307777  1.0000
  H   H15       1.0  0.8037226411790133  0.9067166029906127  0.1392255614275073  1.0000
  C   C22       1.0  0.9216216398200743  0.46151677368624  0.26210909284041795  1.0000
  C   C23       1.0  0.8957820862725563  0.5898988364297726  0.24881550756717608  1.0000
  C   C24       1.0  0.882727293530605  0.6535775122936962  0.12520928087448358  1.0000
  C   C25       1.0  0.8957820170695153  0.5898986970813811  0.013664332213710662  1.0000
  C   C26       1.0  0.921621590053191  0.46151676276154197  0.024605992405800192  1.0000
  C   C27       1.0  0.9343914583538533  0.39794072895932886  0.14935611996541098  1.0000
  S   S1        1.0  0.8498710386280798  0.8177076185377175  0.10973249145840547  1.0000
  C   C28       1.0  0.7489401509395978  0.7679268888999502  0.10499936574724988  1.0000
  H   H16       1.0  0.931330804638521  0.41311790360819933  0.5944308367606168  1.0000
  H   H17       1.0  0.8855175680687867  0.6408925155498266  0.3341018207279831  1.0000
  H   H18       1.0  0.8855174144143394  0.6408923217648406  0.9187514951813296  1.0000
  H   H19       1.0  0.9543087365153629  0.2989047365841324  0.15870249563731176  1.0000
  H   H20       1.0  0.9313293759132357  0.41311716699253664  0.701415134527613  1.0000
  H   H21       1.0  0.7353200703109203  0.7095584606794518  0.020235052335805914  1.0000
  H   H22       1.0  0.7353203992564001  0.7095597875183595  0.19646977136191013  1.0000
  H   H23       1.0  0.7134554703655562  0.8560166612776863  0.09517495250711905  1.0000
  Zn  Zn1       1.0  0.8375544878853445  0.45784800029433326  0.6364957135974965  1.0000
  Zn  Zn2       1.0  0.0056813996417901524  0.4651845845501865  0.6502181920699164  1.0000
  C   C29       1.0  0.9216185093502564  0.45634295191368945  0.8804769778067552  1.0000
  C   C30       1.0  0.9216192145547449  0.46669135168291054  0.4062372053409178  1.0000
  C   C31       1.0  0.9216809570056776  0.6987112111054814  0.6382133702658175  1.0000
  C   C32       1.0  0.921556709113027  0.22432152966866958  0.6485008772208611  1.0000
  O   O2        1.0  0.9854216859125872  0.47120651701812877  0.4598155248787139  1.0000
  O   O3        1.0  0.985420473562235  0.4573951045388658  0.8373133280624454  1.0000
  O   O4        1.0  0.9854700407348403  0.653110501468906  0.6416836808848065  1.0000
  O   O5        1.0  0.9853720613721406  0.27549112687493094  0.6554450700310515  1.0000
  O   O6        1.0  0.8578637687815309  0.6475414554673866  0.6312688309467243  1.0000
  O   O7        1.0  0.8578142020217591  0.4518276188575927  0.8268984090957205  1.0000
  O   O8        1.0  0.8578154144111569  0.4656389860826764  0.44939904500297767  1.0000
  O   O9        1.0  0.8577657898650883  0.2699235866504339  0.6450286874909801  1.0000
