data_image0
_chemical_formula_structural       NC9NC5H8C6NH7C6SCH8Zn2C4O8
_chemical_formula_sum              "N3 C31 H23 S1 Zn2 O8"
_cell_length_a       17.807436237873137
_cell_length_b       9.274771166103582
_cell_length_c       10.302812801239593
_cell_angle_alpha    85.45577702643503
_cell_angle_beta     89.39214003622364
_cell_angle_gamma    88.98784114054227

_space_group_name_H-M_alt    "P 1"
_space_group_IT_number       1

loop_
  _space_group_symop_operation_xyz
  'x, y, z'

loop_
  _atom_site_type_symbol
  _atom_site_label
  _atom_site_symmetry_multiplicity
  _atom_site_fract_x
  _atom_site_fract_y
  _atom_site_fract_z
  _atom_site_occupancy
  N   N1        1.0  0.71580259721535  0.5409827303471122  0.5549070536090339  1.0000
  C   C1        1.0  0.6550023195870203  0.501907911461696  0.543954465917394  1.0000
  C   C2        1.0  0.5793734567790246  0.45330313991251603  0.5303306359433351  1.0000
  C   C3        1.0  0.5608503453370528  0.374004147126648  0.4254985357105825  1.0000
  C   C4        1.0  0.4874179546614724  0.32668885385933466  0.4121882864072801  1.0000
  C   C5        1.0  0.4314576744194359  0.3582533422652956  0.5036784239568346  1.0000
  C   C6        1.0  0.3534186673393874  0.3080969749578488  0.48961490297683996  1.0000
  C   C7        1.0  0.291736590750933  0.3988793614449835  0.5153879919520246  1.0000
  C   C8        1.0  0.2181606676445119  0.35133861328590466  0.5020918110243562  1.0000
  C   C9        1.0  0.1554447728800448  0.4451094916910421  0.5282234982068148  1.0000
  N   N2        1.0  0.105034146459797  0.5204947904772739  0.5492326597095605  1.0000
  C   C10       1.0  0.2056817165552634  0.21272901622949836  0.46299769685400904  1.0000
  C   C11       1.0  0.2665063395771298  0.12193124812297063  0.437216247533166  1.0000
  C   C12       1.0  0.339960445456643  0.16903389683082248  0.45031071463217676  1.0000
  C   C13       1.0  0.4506751791042918  0.43810128108188984  0.6087287315091781  1.0000
  C   C14       1.0  0.5241592901147253  0.4852051603053058  0.621883746165101  1.0000
  H   H1        1.0  0.6031093736389783  0.3490369188522775  0.353851690772679  1.0000
  H   H2        1.0  0.4741809023103026  0.26708030477385303  0.3293974292258748  1.0000
  H   H3        1.0  0.3008233027596484  0.5071047693578563  0.5440679758402929  1.0000
  H   H4        1.0  0.1490109191709344  0.17493525209418848  0.4524717887772225  1.0000
  H   H5        1.0  0.2567262420520079  0.014616492188831431  0.4073346481257196  1.0000
  H   H6        1.0  0.3862038016962938  0.09603034086081808  0.43139510261122793  1.0000
  H   H7        1.0  0.4091297711202236  0.462469936563106  0.6816707074417008  1.0000
  H   H8        1.0  0.537932072355996  0.5461690625704614  0.7036309500229989  1.0000
  C   C15       1.0  0.9081161396603575  0.10726340929247224  0.5528110889447198  1.0000
  C   C16       1.0  0.890833475702447  0.19148186540460999  0.4369631485350649  1.0000
  C   C17       1.0  0.8805631254183925  0.12697307866466923  0.320276376697765  1.0000
  C   C18       1.0  0.8876148136224649  0.9768662902650261  0.3185907135947179  1.0000
  C   C19       1.0  0.9035086501006403  0.8914015094999622  0.43286402772864263  1.0000
  C   C20       1.0  0.9127277280770159  0.954202708841694  0.5513398362611268  1.0000
  N   N3        1.0  0.863741905185691  0.21426674384393807  0.20314570410374944  1.0000
  H   H9        1.0  0.9926409498050139  0.1824746082776285  0.8357110136705088  1.0000
  H   H10       1.0  0.8870465648333717  0.30827390433749713  0.4365196495978305  1.0000
  H   H11       1.0  0.8800682861242645  0.9257762930902236  0.22880683304681115  1.0000
  H   H12       1.0  0.9068185523220208  0.7750632715504517  0.4290975638833314  1.0000
  H   H13       1.0  0.9666144970732367  0.6542999685495262  0.7438647248250323  1.0000
  H   H14       1.0  0.8585672305083223  0.32661302335894526  0.20317897442902888  1.0000
  H   H15       1.0  0.8562660827794493  0.1671902326980963  0.1154958797903809  1.0000
  C   C21       1.0  0.9104219507542486  0.5307330476979948  0.17082698833315058  1.0000
  C   C22       1.0  0.8858761379043928  0.6758756212583426  0.15974913917451872  1.0000
  C   C23       1.0  0.8734681309038373  0.747891479201013  0.037264758201999815  1.0000
  C   C24       1.0  0.885876069371051  0.6758754734434786  0.9245979707353298  1.0000
  C   C25       1.0  0.9104219019854953  0.5307330405440198  0.933323892689768  1.0000
  C   C26       1.0  0.9225516546282579  0.4588596533223299  0.05697927013641646  1.0000
  S   S1        1.0  0.8422620562280603  0.9334312333400958  0.02460358818276598  1.0000
  C   C27       1.0  0.7431956421419131  0.8882474050578579  0.029643475605898084  1.0000
  H   H16       1.0  0.9196440719138375  0.4760188289003311  0.502316497114299  1.0000
  H   H17       1.0  0.8761255177186367  0.7335267157910557  0.24591564244666309  1.0000
  H   H18       1.0  0.8761253662199862  0.7335265159743118  0.8305653320175441  1.0000
  H   H19       1.0  0.9414712566732614  0.3468959098783637  0.06461790246096233  1.0000
  H   H20       1.0  0.9196426693962696  0.4760181538284971  0.6093009332878006  1.0000
  H   H21       1.0  0.7295283640948587  0.8247958578579859  0.9463027516589095  1.0000
  H   H22       1.0  0.7295286937009624  0.8247972983136889  0.1225374364712366  1.0000
  H   H23       1.0  0.7089773047972909  0.9896130692723535  0.023040807466411684  1.0000
  Zn  Zn1       1.0  0.8281263923179947  0.5350665055822723  0.553277061207827  1.0000
  Zn  Zn2       1.0  0.9927102691535993  0.5263992602673586  0.5508733457709682  1.0000
  C   C28       1.0  0.9103889566554928  0.5249882289411039  0.7892056684112481  1.0000
  C   C29       1.0  0.9104495119742724  0.536479261799111  0.31494483658439054  1.0000
  C   C30       1.0  0.911852164987055  0.7941133262724616  0.5464444313511463  1.0000
  C   C31       1.0  0.9089862380478886  0.26735243485248494  0.5577061466912518  1.0000
  O   O1        1.0  0.9729174510385186  0.5351122780306994  0.3623999164381413  1.0000
  O   O2        1.0  0.9728363659742495  0.5197758861699995  0.7399258523210104  1.0000
  O   O3        1.0  0.9740170832332326  0.7370978501560781  0.5438944455111896  1.0000
  O   O4        1.0  0.9717366776743831  0.3177903273181055  0.558431226706354  1.0000
  O   O5        1.0  0.8490999276328199  0.7436754414908  0.5457191810858797  1.0000
  O   O6        1.0  0.8479192198042674  0.5263552100792661  0.7417505156623785  1.0000
  O   O7        1.0  0.8480003046449556  0.5416915516847698  0.36422301895855447  1.0000
  O   O8        1.0  0.8468195312215812  0.3243695906579671  0.5602544265818143  1.0000
