data_image0
_chemical_formula_structural       NC8NC6H8C6BrH5C6NH7Zn2C4O8
_chemical_formula_sum              "N3 C30 H20 Br1 Zn2 O8"
_cell_length_a       17.457602349358154
_cell_length_b       10.302969083221269
_cell_length_c       9.274774538082514
_cell_angle_alpha    85.06360997403345
_cell_angle_beta     93.23827242343725
_cell_angle_gamma    91.68807063265206

_space_group_name_H-M_alt    "P 1"
_space_group_IT_number       1

loop_
  _space_group_symop_operation_xyz
  'x, y, z'

loop_
  _atom_site_type_symbol
  _atom_site_label
  _atom_site_symmetry_multiplicity
  _atom_site_fract_x
  _atom_site_fract_y
  _atom_site_fract_z
  _atom_site_occupancy
  N   N1        1.0  0.7174646849032413  0.46411006078882155  0.47318029300929476  1.0000
  C   C1        1.0  0.6563484136025495  0.4182905465911462  0.46137952360005396  1.0000
  C   C2        1.0  0.5803172235316965  0.36129670183418106  0.44670997359878073  1.0000
  C   C3        1.0  0.5220590841192948  0.4008048565240552  0.5299685976657877  1.0000
  C   C4        1.0  0.4474681958175213  0.3459233315494026  0.5159820761931049  1.0000
  C   C5        1.0  0.3856351292036432  0.38763608345208445  0.6041561168071601  1.0000
  C   C6        1.0  0.3108870784717124  0.40657549601443965  0.5421676331905594  1.0000
  C   C7        1.0  0.2526293260850272  0.445898861451989  0.6255462620072869  1.0000
  C   C8        1.0  0.1764351190097552  0.46546288161077665  0.5610950018267395  1.0000
  N   N2        1.0  0.11518789357401552  0.48118597489850923  0.5092763565518428  1.0000
  C   C9        1.0  0.2686292982134536  0.46652152708650774  0.7714786586609983  1.0000
  C   C10       1.0  0.34259404472730337  0.447967659529688  0.8338980085580558  1.0000
  C   C11       1.0  0.4008418452323714  0.4088203746628871  0.7510281972082244  1.0000
  C   C12       1.0  0.4324189178434615  0.25086870936003347  0.4171440518749414  1.0000
  C   C13       1.0  0.49066678370197225  0.21163572264670294  0.33433008411605547  1.0000
  C   C14       1.0  0.5644748924612035  0.26662488250539007  0.3489279471681588  1.0000
  H   H1        1.0  0.53464375792103  0.4754048438553711  0.6040373952428744  1.0000
  H   H2        1.0  0.2981736211298974  0.39248279429144284  0.42875399556592275  1.0000
  H   H3        1.0  0.2239808090919579  0.49689099854033425  0.8368824315085133  1.0000
  H   H4        1.0  0.3547924430390655  0.463620709388725  0.9468967177883367  1.0000
  H   H5        1.0  0.45749397060659036  0.3934390309917224  0.8022815900330811  1.0000
  H   H6        1.0  0.375895794135514  0.2056389810144834  0.40530313371968285  1.0000
  H   H7        1.0  0.47859159202405327  0.13816208526425533  0.2589291946271268  1.0000
  H   H8        1.0  0.6091252713901858  0.2353816229795569  0.2840923570920364  1.0000
  C   C15       1.0  0.9163299701163541  0.0914005999611247  0.4912349420531885  1.0000
  C   C16       1.0  0.9959739308700408  0.0917156778311381  0.5227860545650924  1.0000
  C   C17       1.0  0.035481621569417365  0.9749341242019779  0.53843691736123  1.0000
  C   C18       1.0  0.9959739902367025  0.856633322927532  0.5227857861015259  1.0000
  C   C19       1.0  0.9163299816046563  0.8538856185616102  0.49123484741374424  1.0000
  C   C20       1.0  0.876892600210393  0.971884832425191  0.4756117152947916  1.0000
  Br  Br1       1.0  0.14381111922949574  0.9770170365887816  0.581352252592221  1.0000
  H   H9        1.0  0.8863527506160495  0.41858367914736627  0.4793587541421849  1.0000
  H   H10       1.0  0.02767868617086444  0.1823245965118283  0.5353461147509395  1.0000
  H   H11       1.0  0.02767877436288302  0.7672436712550186  0.5353454726389073  1.0000
  H   H12       1.0  0.81546811531495  0.9707037360663191  0.4512784768804472  1.0000
  H   H13       1.0  0.8863525377638651  0.5255496610784541  0.47936086747888274  1.0000
  C   C21       1.0  0.9149526923712988  0.4759045215608526  0.06729358709411293  1.0000
  C   C22       1.0  0.9693320293619122  0.5548530401547025  0.13896537708388434  1.0000
  C   C23       1.0  0.02715433490811403  0.6232549338668594  0.0634482145469184  1.0000
  C   C24       1.0  0.031065612572847012  0.6130273834302167  0.9148257752590756  1.0000
  C   C25       1.0  0.9769324934901732  0.5369494101920269  0.8414737683063969  1.0000
  C   C26       1.0  0.9177072536096679  0.4693816786588605  0.9151762091626696  1.0000
  N   N3        1.0  0.08241469864573059  0.702060659911844  0.13820520879421405  1.0000
  H   H14       1.0  0.8002391498179146  0.2171890373310459  0.18280290697907509  1.0000
  H   H15       1.0  0.9679505996806786  0.5609511031864203  0.2548601317072916  1.0000
  H   H16       1.0  0.07570877627046113  0.665104322418836  0.8553466653174788  1.0000
  H   H17       1.0  0.9803546588223928  0.5334850275487837  0.7256113036575362  1.0000
  H   H18       1.0  0.8380866970676873  0.2989788399775546  0.641868347269972  1.0000
  H   H19       1.0  0.08018613538161667  0.7101064279767513  0.24937287366295613  1.0000
  H   H20       1.0  0.1259501673953516  0.7530690996262124  0.08291425286520693  1.0000
  Zn  Zn1       1.0  0.8322390387438131  0.46903425502138507  0.48360517275639414  1.0000
  Zn  Zn2       1.0  0.0004135638818862919  0.4762510453081197  0.49886329624760806  1.0000
  C   C27       1.0  0.9171848748242701  0.46544255874840057  0.754908085744374  1.0000
  C   C28       1.0  0.9154695647223768  0.47984445739609183  0.22756069157327352  1.0000
  C   C29       1.0  0.916307340430575  0.7098038205098016  0.4854816363882706  1.0000
  C   C30       1.0  0.916347041979885  0.23548163277412426  0.49698721269079105  1.0000
  O   O1        1.0  0.979464387645987  0.4838998062196045  0.2871381742417236  1.0000
  O   O2        1.0  0.9808306238366984  0.4668636105538173  0.7069107501782685  1.0000
  O   O3        1.0  0.9801211482502432  0.6641883713284105  0.4893469080280355  1.0000
  O   O4        1.0  0.9801738054942077  0.2865750531024065  0.5047019029407418  1.0000
  O   O5        1.0  0.8524787397417555  0.6587102447658331  0.4777665608488175  1.0000
  O   O6        1.0  0.853188215074661  0.4613870443905419  0.6953303260231944  1.0000
  O   O7        1.0  0.8518219732961134  0.4784232081698019  0.27555601439067945  1.0000
  O   O8        1.0  0.8525313914928321  0.281098444933944  0.4931198513264705  1.0000
