data_image0
_chemical_formula_structural       NC8NC6H8C6FH5C6NCOH7Zn2C4O8
_chemical_formula_sum              "N3 C31 H20 F1 O9 Zn2"
_cell_length_a       17.457602349358154
_cell_length_b       9.275642734913903
_cell_length_c       10.29962270195845
_cell_angle_alpha    85.49692857715169
_cell_angle_beta     92.8939802036364
_cell_angle_gamma    92.29444944329062

_space_group_name_H-M_alt    "P 1"
_space_group_IT_number       1

loop_
  _space_group_symop_operation_xyz
  'x, y, z'

loop_
  _atom_site_type_symbol
  _atom_site_label
  _atom_site_symmetry_multiplicity
  _atom_site_fract_x
  _atom_site_fract_y
  _atom_site_fract_z
  _atom_site_occupancy
  N   N1        1.0  0.7311993446746488  0.6134112490203572  0.6251589522361651  1.0000
  C   C1        1.0  0.6698335882671355  0.5623897055724725  0.6145866402489413  1.0000
  C   C2        1.0  0.5934920416676346  0.49892525711749847  0.6014442205679635  1.0000
  C   C3        1.0  0.5352278165223477  0.5435685282367955  0.6763029205100026  1.0000
  C   C4        1.0  0.46033765244616426  0.48245745326400513  0.6637729346020869  1.0000
  C   C5        1.0  0.39849734480777915  0.529594262119174  0.7430512574393073  1.0000
  C   C6        1.0  0.3240548066136155  0.5500895518336293  0.6872712180114406  1.0000
  C   C7        1.0  0.2657894550491007  0.5945285437767645  0.7622380431704192  1.0000
  C   C8        1.0  0.1899121026122494  0.6156960332233354  0.7042420064933927  1.0000
  N   N2        1.0  0.1289195880920378  0.6327076076962881  0.6576133500583299  1.0000
  C   C9        1.0  0.2814760903475577  0.6187425388476298  0.893493188526131  1.0000
  C   C10       1.0  0.3551364200163989  0.5986795135489986  0.9496604537656872  1.0000
  C   C11       1.0  0.4133913756427037  0.5544407128917155  0.8751511732822277  1.0000
  C   C12       1.0  0.4449958667639596  0.37595003493490875  0.5749519891439896  1.0000
  C   C13       1.0  0.5032501852680339  0.33161649503152346  0.5004930239001084  1.0000
  C   C14       1.0  0.5773563893894716  0.39285261278450045  0.5135728452789137  1.0000
  H   H1        1.0  0.5480526488391051  0.6271256895488964  0.7428617906530142  1.0000
  H   H2        1.0  0.3115969053076788  0.5334209961112373  0.5852624129593864  1.0000
  H   H3        1.0  0.2368186741930722  0.6530717946147153  0.9522990323830964  1.0000
  H   H4        1.0  0.3670902305562067  0.6170783080365092  0.05129453720129029  1.0000
  H   H5        1.0  0.4697926282031872  0.5378038810218189  0.9212710307866749  1.0000
  H   H6        1.0  0.38822705058732787  0.32558353042344956  0.5643430055316176  1.0000
  H   H7        1.0  0.49094587795520167  0.24929914209744752  0.43273479968026973  1.0000
  H   H8        1.0  0.6220085367110064  0.3575574160759514  0.45527893747509074  1.0000
  C   C15       1.0  0.9276900556201358  0.19940069293451357  0.6417512029960497  1.0000
  C   C16       1.0  0.9128128712751442  0.2819484897685609  0.523218408916742  1.0000
  C   C17       1.0  0.9051749078549303  0.21625778443225108  0.40567695059696574  1.0000
  C   C18       1.0  0.9123563271333442  0.06731483138094863  0.40459723418795734  1.0000
  C   C19       1.0  0.9258461144438824  0.9831095637068428  0.5212001523795866  1.0000
  C   C20       1.0  0.9324361682560333  0.04670738627368909  0.6410329220235353  1.0000
  F   F1        1.0  0.8916825037130254  0.2976612150522555  0.2922449478124838  1.0000
  H   H9        1.0  0.007049305019470209  0.28250375597784827  0.9383006781754455  1.0000
  H   H10       1.0  0.9088941088325376  0.39838312805551346  0.5212366034374427  1.0000
  H   H11       1.0  0.9067353585730769  0.01654728626290347  0.31331403385343526  1.0000
  H   H12       1.0  0.9293111424598658  0.8671164365924604  0.517913768057793  1.0000
  H   H13       1.0  0.9828007827548815  0.7517993152174478  0.8420901329238981  1.0000
  C   C21       1.0  0.9299892886310176  0.6229098575080996  0.2600294457003247  1.0000
  C   C22       1.0  0.8496385928721872  0.6301380045334368  0.2513646829378706  1.0000
  C   C23       1.0  0.8093123207810675  0.6361486881828515  0.13004635539458587  1.0000
  C   C24       1.0  0.8498100132975691  0.6304554579296624  0.01620607503343252  1.0000
  C   C25       1.0  0.9301369165954061  0.6231982206934596  0.02275465115441988  1.0000
  C   C26       1.0  0.9697945016817673  0.6200465687958445  0.1451339553060329  1.0000
  N   N3        1.0  0.7269773216527747  0.6413004168954561  0.12519842955883886  1.0000
  C   C27       1.0  0.6823962045168632  0.717859788910884  0.02338429675177811  1.0000
  O   O1        1.0  0.7137777316062859  0.8027539576181846  0.9387263013510903  1.0000
  H   H14       1.0  0.08148763632079015  0.6077281788501012  0.48372934127562206  1.0000
  H   H15       1.0  0.8179724934953808  0.6323547396764724  0.33893145878072484  1.0000
  H   H16       1.0  0.8186610506039035  0.6286719350970753  0.9228124150638428  1.0000
  H   H17       1.0  0.031737111934442286  0.6144931771118505  0.15093618703500566  1.0000
  H   H18       1.0  0.9608809047310112  0.6182208221043548  0.6979691050065453  1.0000
  H   H19       1.0  0.6975858979154111  0.5950296239406496  0.20495590169641642  1.0000
  H   H20       1.0  0.6204555030537373  0.7058591191036894  0.021236443635111568  1.0000
  Zn  Zn1       1.0  0.8459727955071982  0.6189758952457036  0.6345320920185928  1.0000
  Zn  Zn2       1.0  0.01414605881115305  0.6271311369346944  0.6482508526551083  1.0000
  C   C28       1.0  0.9300751060883032  0.617396246864643  0.8785880230216012  1.0000
  C   C29       1.0  0.930045594897881  0.6287126947449533  0.4041951973817899  1.0000
  C   C30       1.0  0.9315340858907708  0.8865462397446326  0.6359932964992148  1.0000
  C   C31       1.0  0.9285865480140084  0.3595609657838772  0.6467899899297569  1.0000
  O   O2        1.0  0.9938853335216947  0.6337487576356069  0.4577847441175922  1.0000
  O   O3        1.0  0.9938749768790516  0.6185487352112671  0.8354103252611429  1.0000
  O   O4        1.0  0.9950522614462818  0.8358907171182808  0.6395132957416811  1.0000
  O   O5        1.0  0.9927079916072836  0.41640678322936164  0.6536816715739602  1.0000
  O   O6        1.0  0.8674108053217942  0.8297002461696206  0.629101268411369  1.0000
  O   O7        1.0  0.866233530446695  0.6123599975622769  0.824998227216879  1.0000
  O   O8        1.0  0.8662438865565616  0.6275599691243776  0.4473710847451764  1.0000
  O   O9        1.0  0.8650665446000576  0.4102179844359479  0.6432681095762669  1.0000
