data_image0
_chemical_formula_structural       NC8NC6H8C7OH6C8H10Zn2C4O8
_chemical_formula_sum              "N2 C33 H24 O9 Zn2"
_cell_length_a       17.457602349358154
_cell_length_b       9.274078303013075
_cell_length_c       9.275657083861812
_cell_angle_alpha    86.02466005452891
_cell_angle_beta     92.37146316173272
_cell_angle_gamma    91.09880916489897

_space_group_name_H-M_alt    "P 1"
_space_group_IT_number       1

loop_
  _space_group_symop_operation_xyz
  'x, y, z'

loop_
  _atom_site_type_symbol
  _atom_site_label
  _atom_site_symmetry_multiplicity
  _atom_site_fract_x
  _atom_site_fract_y
  _atom_site_fract_z
  _atom_site_occupancy
  N   N1        1.0  0.7207724242329244  0.6053164919706413  0.4801926927491771  1.0000
  C   C1        1.0  0.6600250908231124  0.5542768831839595  0.4682826325990155  1.0000
  C   C2        1.0  0.5844527415400377  0.49079000537615536  0.4534771214168194  1.0000
  C   C3        1.0  0.5252969783119424  0.5357817384865806  0.5366948575714001  1.0000
  C   C4        1.0  0.45114682023366154  0.4746497001280747  0.5225771563132771  1.0000
  C   C5        1.0  0.3883639044997412  0.5221556430464906  0.6107075291510817  1.0000
  C   C6        1.0  0.3139935617151843  0.5423538327452255  0.5488878504541375  1.0000
  C   C7        1.0  0.2548383444934977  0.5871419772048665  0.6322248407190669  1.0000
  C   C8        1.0  0.1790376198791169  0.6080006625475589  0.5679487261809606  1.0000
  N   N2        1.0  0.11810679134641891  0.6247639642538989  0.5162708794393074  1.0000
  C   C9        1.0  0.2695572268802346  0.6120046136868873  0.7779464318013503  1.0000
  C   C10       1.0  0.3431385319075005  0.5922403506693958  0.8401972833555515  1.0000
  C   C11       1.0  0.4022787044397662  0.5476545779557049  0.7573686736419105  1.0000
  C   C12       1.0  0.4374525229834242  0.36776611894510625  0.42364988252560565  1.0000
  C   C13       1.0  0.4965928331138818  0.3230859280927465  0.3408767679233573  1.0000
  C   C14       1.0  0.5699547172336822  0.3843457099830174  0.3556049884349366  1.0000
  H   H1        1.0  0.5368460036304626  0.6196181727540535  0.6108401711976033  1.0000
  H   H2        1.0  0.3022640971754414  0.5251796685696455  0.4356435791714883  1.0000
  H   H3        1.0  0.2242076131539196  0.6466081224172564  0.8433161790536738  1.0000
  H   H4        1.0  0.3543468501885784  0.6111416484193204  0.9530318582350368  1.0000
  H   H5        1.0  0.45861686116694306  0.5312631780365753  0.8084832909268238  1.0000
  H   H6        1.0  0.381295111037201  0.31738090687953546  0.4117014354913813  1.0000
  H   H7        1.0  0.48555708345375304  0.24048235746364255  0.26540504827418654  1.0000
  H   H8        1.0  0.615306966710149  0.34877952884187646  0.2907998731523638  1.0000
  C   C15       1.0  0.9217344494471772  0.19167844983092475  0.497147478588428  1.0000
  C   C16       1.0  0.9075141726314613  0.27377847748298767  0.36572425368927974  1.0000
  C   C17       1.0  0.8866467875259312  0.20701193750202496  0.2386215046702922  1.0000
  C   C18       1.0  0.8797963242611007  0.05605787188921596  0.24284363649585594  1.0000
  C   C19       1.0  0.8948918128203652  0.9729283051412801  0.371663431307653  1.0000
  C   C20       1.0  0.9171521085440976  0.0383912796805006  0.4993292318505327  1.0000
  C   C21       1.0  0.8714745126361786  0.2964980702901443  0.10308030634700316  1.0000
  O   O1        1.0  0.8522998505524514  0.23967639218936987  0.9871975642248336  1.0000
  H   H9        1.0  0.9177289813883409  0.2699328632106197  0.8517136735059205  1.0000
  H   H10       1.0  0.910957920299735  0.3907966770626701  0.36292772832536024  1.0000
  H   H11       1.0  0.8634671345613744  0.0019183777710629624  0.14619279843824629  1.0000
  H   H12       1.0  0.8908990238693365  0.8562917719835872  0.37052973939670975  1.0000
  H   H13       1.0  0.9178141504448628  0.7407576297829056  0.73779646818772  1.0000
  H   H14       1.0  0.8767742071864425  0.41306426787438477  0.10204674342701736  1.0000
  C   C22       1.0  0.92140797568053  0.6129571537565959  0.075090183851239  1.0000
  C   C23       1.0  0.9605284851980566  0.7247999673342724  0.14391990704028035  1.0000
  C   C24       1.0  0.9928457752358305  0.842481860653693  0.06347185912179865  1.0000
  C   C25       1.0  0.9871857654525635  0.8473930659204116  0.912334954224939  1.0000
  C   C26       1.0  0.9497177057761038  0.736276781564773  0.8422046509547734  1.0000
  C   C27       1.0  0.9174785653428946  0.6171125801409529  0.9213865133950376  1.0000
  C   C28       1.0  0.03548001437707926  0.9602094072149974  0.13889767152254406  1.0000
  C   C29       1.0  0.11991663195439561  0.9231925504013763  0.1642829607480063  1.0000
  H   H15       1.0  0.888238133990293  0.38128030707695615  0.36919976178948466  1.0000
  H   H16       1.0  0.9645070600904266  0.7223211522919606  0.2609979893142105  1.0000
  H   H17       1.0  0.01255618231261968  0.9367732255116217  0.8485227147315046  1.0000
  H   H18       1.0  0.9477143299521165  0.7417985416318551  0.72506566045627  1.0000
  H   H19       1.0  0.8278540969297544  0.44652676761182564  0.6449043897996436  1.0000
  H   H20       1.0  0.030714792227912957  0.06466578151087088  0.07294578872039792  1.0000
  H   H21       1.0  0.009891296404808347  0.9752891013540419  0.24450079123371404  1.0000
  H   H22       1.0  0.1259296599447961  0.8209002396734881  0.23326247206594397  1.0000
  H   H23       1.0  0.14696920445504835  0.9112446189177226  0.059523827732389734  1.0000
  H   H24       1.0  0.15028046663388595  0.011244259969161341  0.21987214172361824  1.0000
  Zn  Zn1       1.0  0.8354345220130209  0.6109247870475747  0.49061238806536545  1.0000
  Zn  Zn2       1.0  0.003444688511165417  0.619143906837754  0.5058629509944292  1.0000
  C   C30       1.0  0.9182506820669201  0.6105836852462843  0.7614034089915307  1.0000
  C   C31       1.0  0.9206303526218095  0.6194869181362423  0.2350722427215488  1.0000
  C   C32       1.0  0.9180409723143611  0.8783161599845692  0.49317432738138534  1.0000
  C   C33       1.0  0.9208400140616076  0.35175270886093823  0.5033013914884128  1.0000
  O   O2        1.0  0.9841283918522558  0.6247911902343253  0.2945511760788526  1.0000
  O   O3        1.0  0.9822684795299114  0.6115164452536419  0.7134988824198403  1.0000
  O   O4        1.0  0.9820982697942208  0.8277137698538988  0.49690192709744063  1.0000
  O   O5        1.0  0.9842985447032895  0.40859387261211744  0.5111480181817099  1.0000
  O   O6        1.0  0.8545806084872996  0.8214748184699614  0.48532731566624054  1.0000
  O   O7        1.0  0.8547508092021535  0.6052792256034736  0.7019241986200784  1.0000
  O   O8        1.0  0.8566107298912694  0.6185539118408838  0.28297475970102504  1.0000
  O   O9        1.0  0.8567808822933624  0.4023565844373769  0.4995717098115813  1.0000
