data_image0
_chemical_formula_structural       NC8NC6H8C6H6C6ClH5Zn2C4O8
_chemical_formula_sum              "N2 C30 H19 Cl1 Zn2 O8"
_cell_length_a       17.457602349358154
_cell_length_b       10.681118228259551
_cell_length_c       10.302974078461048
_cell_angle_alpha    85.5607029968737
_cell_angle_beta     92.87591007631781
_cell_angle_gamma    91.68806569353352

_space_group_name_H-M_alt    "P 1"
_space_group_IT_number       1

loop_
  _space_group_symop_operation_xyz
  'x, y, z'

loop_
  _atom_site_type_symbol
  _atom_site_label
  _atom_site_symmetry_multiplicity
  _atom_site_fract_x
  _atom_site_fract_y
  _atom_site_fract_z
  _atom_site_occupancy
  N   N1        1.0  0.7224249149709662  0.40094539615626035  0.6269598436314903  1.0000
  C   C1        1.0  0.6613469838566145  0.3566604851599484  0.6163476246382076  1.0000
  C   C2        1.0  0.5853634545170585  0.30157556614348535  0.6031555630175649  1.0000
  C   C3        1.0  0.5268348245369279  0.34030282593993566  0.6780284930949831  1.0000
  C   C4        1.0  0.45228937786135814  0.2872605116433413  0.6654506666136584  1.0000
  C   C5        1.0  0.3901698514833273  0.3281507937231418  0.7447439392290907  1.0000
  C   C6        1.0  0.3156231866709128  0.34595968921517084  0.6889988585536688  1.0000
  C   C7        1.0  0.2570945538562818  0.3845095924649089  0.7639797066265694  1.0000
  C   C8        1.0  0.1811097336848901  0.40290270683016094  0.7060198971567138  1.0000
  N   N2        1.0  0.1200308547746612  0.4176846189421859  0.6594203613404255  1.0000
  C   C9        1.0  0.2726204231435724  0.4054850564849326  0.8952139849418375  1.0000
  C   C10       1.0  0.3463823839314468  0.3880512536525986  0.9513465356699065  1.0000
  C   C11       1.0  0.4048994118215933  0.34967497285710647  0.8768232576580477  1.0000
  C   C12       1.0  0.4375612070206569  0.19483771613941525  0.5765674638494542  1.0000
  C   C13       1.0  0.4960781188447931  0.15637918204127654  0.5020944049198839  1.0000
  C   C14       1.0  0.5698387998600756  0.20952985712021066  0.5152219994674205  1.0000
  H   H1        1.0  0.5391788618552696  0.4128113490731433  0.7446371900563342  1.0000
  H   H2        1.0  0.3032781856557413  0.33152431572855323  0.5870080931162984  1.0000
  H   H3        1.0  0.22775945031494044  0.4352646800611206  0.9540303797197389  1.0000
  H   H4        1.0  0.3582136738546892  0.40398865440173637  0.052964164028053595  1.0000
  H   H5        1.0  0.461385027034006  0.33521851667648517  0.9229144725764695  1.0000
  H   H6        1.0  0.3810765539062093  0.15112141256342904  0.5659191399400014  1.0000
  H   H7        1.0  0.4842478912686186  0.08494724710028234  0.43428778280880476  1.0000
  H   H8        1.0  0.6146998166370495  0.17891159694222014  0.45691656068019193  1.0000
  C   C15       1.0  0.9212315618247614  0.041565143688127026  0.6431959885121965  1.0000
  C   C16       1.0  0.9549115973085155  0.9684697993549418  0.7490487805238695  1.0000
  C   C17       1.0  0.9549115855788144  0.83758756068533  0.7490487202105176  1.0000
  C   C18       1.0  0.9212315489436158  0.7770555471026508  0.643196043582539  1.0000
  C   C19       1.0  0.887579393904933  0.8501406654139461  0.5374307295047613  1.0000
  C   C20       1.0  0.8875794055962193  0.981032924004991  0.5374307831506562  1.0000
  H   H9        1.0  0.8871717224685518  0.34662734776941684  0.5361506757634222  1.0000
  H   H10       1.0  0.9813116435707272  0.012356855497459796  0.8320211580765082  1.0000
  H   H11       1.0  0.981311549243548  0.783852822930546  0.832021127442885  1.0000
  H   H12       1.0  0.8611759054433896  0.8062990074081949  0.45444751871707534  1.0000
  H   H13       1.0  0.8611758853329304  0.03472344559543994  0.4544475065187803  1.0000
  H   H14       1.0  0.8871720049369085  0.48469800877184793  0.5361503476333676  1.0000
  C   C21       1.0  0.9212315575037959  0.4093103472478976  0.2619535226522802  1.0000
  C   C22       1.0  0.907886099772961  0.2786798665112262  0.270097659605707  1.0000
  C   C23       1.0  0.9012644869900637  0.21386458163248911  0.15718177025081248  1.0000
  C   C24       1.0  0.9078861340863299  0.27867993868077123  0.03498976343594662  1.0000
  C   C25       1.0  0.9212315555468367  0.4093102825225603  0.024438541565929617  1.0000
  C   C26       1.0  0.9278392450441529  0.47398878186193527  0.1385677767881457  1.0000
  Cl  Cl1       1.0  0.884592842356654  0.05067607801229568  0.16885927503141018  1.0000
  H   H15       1.0  0.9262590034707399  0.4585166132858389  0.586188742034107  1.0000
  H   H16       1.0  0.9025783100252395  0.22672507427390887  0.36386200362177323  1.0000
  H   H17       1.0  0.9025783636372968  0.2267250586615308  0.9486610419247494  1.0000
  H   H18       1.0  0.9381316281883414  0.5747349279878426  0.13135844608644254  1.0000
  H   H19       1.0  0.9262588574813744  0.4585165960576114  0.6931610996341679  1.0000
  Zn  Zn1       1.0  0.8371654004695377  0.4057726159317532  0.6363347438390834  1.0000
  Zn  Zn2       1.0  0.00529035502628683  0.4128471315864204  0.650056090134908  1.0000
  C   C27       1.0  0.9212298339090096  0.40432132297616996  0.8803123784682516  1.0000
  C   C28       1.0  0.9212277575060409  0.4143000818989706  0.40607873276672635  1.0000
  C   C29       1.0  0.9212275948459911  0.6380320131407469  0.6380222533861302  1.0000
  C   C30       1.0  0.9212299391998076  0.18058788473712628  0.6483689223822793  1.0000
  O   O1        1.0  0.9850290262559678  0.41865396083711115  0.45965564929065805  1.0000
  O   O2        1.0  0.9850315155210483  0.405335892990774  0.8371492725703338  1.0000
  O   O3        1.0  0.9850288473605077  0.5940601947820852  0.6414982121274966  1.0000
  O   O4        1.0  0.985031637046851  0.22992966559021388  0.6553066077089411  1.0000
  O   O5        1.0  0.8574240610761775  0.5886900795151382  0.6310842215757992  1.0000
  O   O6        1.0  0.8574267292331736  0.39996728230827205  0.8267352127959537  1.0000
  O   O7        1.0  0.8574242400191491  0.41328530651698125  0.44924002863735124  1.0000
  O   O8        1.0  0.8574268508068935  0.22456100231284837  0.6448910843909375  1.0000
