data_image0
_chemical_formula_structural       NC9NC5H8C6H6C7H8Zn2C4O8
_chemical_formula_sum              "N2 C31 H22 Zn2 O8"
_cell_length_a       17.807436237873137
_cell_length_b       10.681118228259551
_cell_length_c       9.274345330872308
_cell_angle_alpha    85.12371440556142
_cell_angle_beta     88.93938532988027
_cell_angle_gamma    88.3900060031841

_space_group_name_H-M_alt    "P 1"
_space_group_IT_number       1

loop_
  _space_group_symop_operation_xyz
  'x, y, z'

loop_
  _atom_site_type_symbol
  _atom_site_label
  _atom_site_symmetry_multiplicity
  _atom_site_fract_x
  _atom_site_fract_y
  _atom_site_fract_z
  _atom_site_occupancy
  N   N1        1.0  0.7138422374720843  0.3485645902318799  0.3964804390758496  1.0000
  C   C1        1.0  0.6533038523742718  0.31471078750040204  0.3842290909772965  1.0000
  C   C2        1.0  0.5780007551091235  0.2726003852007728  0.36898974417995345  1.0000
  C   C3        1.0  0.5603773857150777  0.2044902997977469  0.2522957814624578  1.0000
  C   C4        1.0  0.48726233141562947  0.16349742474168094  0.23740752954524513  1.0000
  C   C5        1.0  0.4307220727390403  0.19025082105107072  0.33917717528259983  1.0000
  C   C6        1.0  0.3530192518350458  0.14679617516633292  0.3234460317657939  1.0000
  C   C7        1.0  0.2907272635813867  0.2254462450393393  0.35227304672862103  1.0000
  C   C8        1.0  0.2174698434858524  0.18425748450895085  0.3373999990716845  1.0000
  C   C9        1.0  0.1541261428835961  0.2655001772191168  0.366631435723513  1.0000
  N   N2        1.0  0.1032107991317421  0.33081367360782044  0.39013270341303374  1.0000
  C   C10       1.0  0.2059209798402346  0.06417006935163783  0.2936717640874533  1.0000
  C   C11       1.0  0.2673556356701959  0.9855067021688093  0.26483542530449844  1.0000
  C   C12       1.0  0.3404945266349507  0.026316467094994245  0.2794833835929942  1.0000
  C   C13       1.0  0.4490358693315359  0.2588360424701648  0.45611477709501624  1.0000
  C   C14       1.0  0.5222044887953282  0.29964644109415706  0.4708300478835312  1.0000
  H   H1        1.0  0.6030919573823338  0.18332342358715925  0.17259847007018814  1.0000
  H   H2        1.0  0.4747193935252573  0.1123281586453111  0.14525462755023377  1.0000
  H   H3        1.0  0.299095992288737  0.319222909817094  0.3843653153847051  1.0000
  H   H4        1.0  0.1495031875539498  0.03142566656577106  0.2818972255847769  1.0000
  H   H5        1.0  0.2582939127031448  0.8925294756710008  0.23140909120914177  1.0000
  H   H6        1.0  0.3872202800458225  0.963056233067496  0.25831409406473327  1.0000
  H   H7        1.0  0.4070324081381483  0.27947381746822897  0.5372507168704914  1.0000
  H   H8        1.0  0.5352804187842314  0.3520001882596706  0.5618253482973683  1.0000
  C   C15       1.0  0.9085300919574906  0.9719389379335363  0.39331274609952294  1.0000
  C   C16       1.0  0.9410527155373816  0.895181499782415  0.5073956112165436  1.0000
  C   C17       1.0  0.9410527043153055  0.7642992625566125  0.5073955454175805  1.0000
  C   C18       1.0  0.9085300790930109  0.7074293420623302  0.3933128086963731  1.0000
  C   C19       1.0  0.8760343785057214  0.7841735237565576  0.2793242179340125  1.0000
  C   C20       1.0  0.8760343897198887  0.915065780954992  0.2793242763248136  1.0000
  H   H9        1.0  0.8756407112534123  0.2807045242734998  0.2779446810314312  1.0000
  H   H10       1.0  0.9665455269739345  0.9361980303501442  0.5968190996105489  1.0000
  H   H11       1.0  0.9665454347032115  0.7076940061302982  0.5968190756219385  1.0000
  H   H12       1.0  0.85053824322659  0.743202765708484  0.18988905351761276  1.0000
  H   H13       1.0  0.8505382235798304  0.9716272057160202  0.18988904210295487  1.0000
  H   H14       1.0  0.875640989435398  0.4187751632958205  0.2779442861004753  1.0000
  C   C21       1.0  0.9102297164161129  0.34242242154775604  0.9694826128552685  1.0000
  C   C22       1.0  0.8654946074059964  0.432671942217161  0.0354714904867095  1.0000
  C   C23       1.0  0.8162677320930445  0.5130551983778879  0.9542403992310144  1.0000
  C   C24       1.0  0.8100374383458782  0.5041267081219267  0.8053977597601159  1.0000
  C   C25       1.0  0.8559375181200367  0.41734513065964074  0.7373856044629363  1.0000
  C   C26       1.0  0.9068304226575291  0.33694584029842045  0.8171429063012816  1.0000
  C   C27       1.0  0.7582558358351532  0.5925161218595643  0.7177131337371407  1.0000
  H   H15       1.0  0.9964823747131714  0.06572129700407059  0.09641289982924484  1.0000
  H   H16       1.0  0.867407637978242  0.439304840666237  0.15125729649622688  1.0000
  H   H17       1.0  0.7823542087696894  0.5814971054875329  0.007955491838969486  1.0000
  H   H18       1.0  0.853093183261035  0.41461957370213054  0.6210399159424256  1.0000
  H   H19       1.0  0.9676363692461035  0.15312477048486173  0.5522561840952971  1.0000
  H   H20       1.0  0.7889382313268192  0.6780664854868332  0.6780889308501563  1.0000
  H   H21       1.0  0.7089515228907345  0.6202731675612476  0.7840918462709863  1.0000
  H   H22       1.0  0.7371484613710726  0.5471991012494417  0.6234556234966089  1.0000
  Zn  Zn1       1.0  0.8262055588772329  0.3434386636676232  0.3946569667186881  1.0000
  Zn  Zn2       1.0  0.9908474119475761  0.33592931537674664  0.3919680411050275  1.0000
  C   C28       1.0  0.9074713033841418  0.33299217409729365  0.656917015202698  1.0000
  C   C29       1.0  0.9095834647564599  0.3463773021334795  0.12970810491661  1.0000
  C   C30       1.0  0.9085492709073182  0.568443309602626  0.38756148899015397  1.0000
  C   C31       1.0  0.908505440743998  0.11092466411018842  0.39906370899416244  1.0000
  O   O1        1.0  0.9718473019980288  0.3448493742308807  0.1824608104729506  1.0000
  O   O2        1.0  0.9701668247359402  0.32881973834987255  0.6021230618533184  1.0000
  O   O3        1.0  0.9710364488554021  0.5189495366765782  0.38461658245789065  1.0000
  O   O4        1.0  0.9709776221314217  0.15471958812423692  0.39996718256965824  1.0000
  O   O5        1.0  0.8460752925092335  0.5246483934841173  0.3866578261640641  1.0000
  O   O6        1.0  0.8452056686949034  0.33452010023935475  0.6041642286044908  1.0000
  O   O7        1.0  0.8468861529656105  0.3505497036893723  0.18450024197776171  1.0000
  O   O8        1.0  0.846016472661995  0.16041990792665106  0.4020067222831969  1.0000
