data_image0
_chemical_formula_structural       NC8NC6H8C6NCH9C6FH5Zn2C4O8
_chemical_formula_sum              "N3 C31 H22 F1 Zn2 O8"
_cell_length_a       17.457602349358154
_cell_length_b       9.273386996610926
_cell_length_c       9.275646106892307
_cell_angle_alpha    84.8581551566088
_cell_angle_beta     92.91404810424501
_cell_angle_gamma    91.0935878010965

_space_group_name_H-M_alt    "P 1"
_space_group_IT_number       1

loop_
  _space_group_symop_operation_xyz
  'x, y, z'

loop_
  _atom_site_type_symbol
  _atom_site_label
  _atom_site_symmetry_multiplicity
  _atom_site_fract_x
  _atom_site_fract_y
  _atom_site_fract_z
  _atom_site_occupancy
  N   N1        1.0  0.7130267608673838  0.6297563469432168  0.4699863415943206  1.0000
  C   C1        1.0  0.652229701528894  0.5788775519389502  0.4582982951092256  1.0000
  C   C2        1.0  0.5765955441967814  0.5155905644542638  0.44376895661050897  1.0000
  C   C3        1.0  0.5178409765365486  0.5593082317930456  0.5269147238621001  1.0000
  C   C4        1.0  0.4436319843322192  0.4983665105925166  0.513063187479893  1.0000
  C   C5        1.0  0.3812739726167518  0.544523106684826  0.6011180159982348  1.0000
  C   C6        1.0  0.3065963462372699  0.5656936413219515  0.5390972671287373  1.0000
  C   C7        1.0  0.24784294574840046  0.6092057648264784  0.6223634578256965  1.0000
  C   C8        1.0  0.1717227519800534  0.6310753631302521  0.5578789579752195  1.0000
  N   N2        1.0  0.11053507220291642  0.648651433113522  0.5060336033107762  1.0000
  C   C9        1.0  0.2632736576196569  0.6318113706360398  0.7682149863845968  1.0000
  C   C10       1.0  0.3371642903039402  0.611068258348662  0.8306655819846649  1.0000
  C   C11       1.0  0.3959051095259762  0.567750688280388  0.7479076762547514  1.0000
  C   C12       1.0  0.4294699657006508  0.39297173206362945  0.4144749455616785  1.0000
  C   C13       1.0  0.48821121152551566  0.34955883416412936  0.3317730775658281  1.0000
  C   C14       1.0  0.5616349080051841  0.41061885415935007  0.34623556566730374  1.0000
  H   H1        1.0  0.529739912815676  0.6420306182222502  0.600788239368601  1.0000
  H   H2        1.0  0.2943133289820961  0.5502745145259926  0.4257418249478029  1.0000
  H   H3        1.0  0.218239321106407  0.6654137101996425  0.8335317066571644  1.0000
  H   H4        1.0  0.348923850030504  0.6282217318293366  0.9436024321074057  1.0000
  H   H5        1.0  0.4524972854784053  0.5505554696607338  0.7991870777005128  1.0000
  H   H6        1.0  0.3732625263082627  0.34274824739401555  0.4027453405215329  1.0000
  H   H7        1.0  0.47681881991340774  0.26809055998411013  0.25656504676861713  1.0000
  H   H8        1.0  0.606674821078885  0.3760445855926957  0.2814890078389416  1.0000
  C   C15       1.0  0.9141434529261219  0.2156546299296238  0.48893347373921725  1.0000
  C   C16       1.0  0.9275761242640537  0.3011590909283848  0.35964775545174255  1.0000
  C   C17       1.0  0.9337868205639336  0.23834186185274686  0.22969905931079482  1.0000
  C   C18       1.0  0.9266584283948935  0.08773799453031783  0.22570768171229183  1.0000
  C   C19       1.0  0.914577335815878  0.0013396945200387922  0.35466262419470707  1.0000
  C   C20       1.0  0.909425759505861  0.06274221591105866  0.4870996691986911  1.0000
  N   N3        1.0  0.9322199874306882  0.019882191944319505  0.09300557253917319  1.0000
  C   C21       1.0  0.9449596772097799  0.0998848210273231  0.9533122646522934  1.0000
  H   H9        1.0  0.9298779155669394  0.4760227125783769  0.7273240505761223  1.0000
  H   H10       1.0  0.9314878505365426  0.4180097886820131  0.35823170402987614  1.0000
  H   H11       1.0  0.9434332860940872  0.30844701768029736  0.1325328798059895  1.0000
  H   H12       1.0  0.910956317303638  0.8847907624597626  0.35205731328246315  1.0000
  H   H13       1.0  0.9377619960708259  0.9289819182369283  0.8412140597050777  1.0000
  H   H14       1.0  0.9267980385639736  0.9072254571591669  0.09550689590920225  1.0000
  H   H15       1.0  0.8974029129959549  0.17646500441275403  0.9239219358846449  1.0000
  H   H16       1.0  0.00047707907529548343  0.16007303737978695  0.9585796589127051  1.0000
  H   H17       1.0  0.9468702032601105  0.023449377889291245  0.8680380913691912  1.0000
  C   C22       1.0  0.9116702039187328  0.6437085523503827  0.06415824658247371  1.0000
  C   C23       1.0  0.9818167613154057  0.6621213990182366  0.14255518214206298  1.0000
  C   C24       1.0  0.05108799927424923  0.6669461223625277  0.07338854956659424  1.0000
  C   C25       1.0  0.05143004401659357  0.6532979687201577  0.9250659872045928  1.0000
  C   C26       1.0  0.9824720308168441  0.6373471354740405  0.8448408817566118  1.0000
  C   C27       1.0  0.9118989946897319  0.6346883314176139  0.9118748630515476  1.0000
  F   F1        1.0  0.11818573793846121  0.6831607594898323  0.1508867772026652  1.0000
  H   H18       1.0  0.7344651754544725  0.5180755254603773  0.16143615681986878  1.0000
  H   H19       1.0  0.9831385647633281  0.6693590232383655  0.25859039343911205  1.0000
  H   H20       1.0  0.10521381800863683  0.656458062489915  0.8716269000809955  1.0000
  H   H21       1.0  0.9842595221310171  0.6305362042763014  0.7290814940968868  1.0000
  H   H22       1.0  0.791895545905723  0.556006122718776  0.6262679286988648  1.0000
  Zn  Zn1       1.0  0.8277390966899535  0.635205104078965  0.4803971449297144  1.0000
  Zn  Zn2       1.0  0.9958227911798082  0.6431907247385618  0.49563464270362223  1.0000
  C   C28       1.0  0.9118860607117715  0.6306473478611359  0.7516505591991487  1.0000
  C   C29       1.0  0.9116776525296427  0.6477503865070151  0.22438153255529691  1.0000
  C   C30       1.0  0.9103120162396032  0.902685660438121  0.4816941648807429  1.0000
  C   C31       1.0  0.9132516493182586  0.3757103375100159  0.4943380023783581  1.0000
  O   O1        1.0  0.9754670734790117  0.6521310720077917  0.28393649560206025  1.0000
  O   O2        1.0  0.9756682806359482  0.6323264800050079  0.70366009124935  1.0000
  O   O3        1.0  0.9743963603455402  0.8520008009825537  0.4856683116516083  1.0000
  O   O4        1.0  0.9767389363271655  0.43245675977460607  0.5019281617544828  1.0000
  O   O5        1.0  0.8468228941838695  0.8459390663194708  0.47410362067144773  1.0000
  O   O6        1.0  0.8480948047991035  0.62626647903849  0.692095319557128  1.0000
  O   O7        1.0  0.8478935975046831  0.6460710392476345  0.2723699886624904  1.0000
  O   O8        1.0  0.8491654604363643  0.42639671554663927  0.49036176305282697  1.0000
