data_image0
_chemical_formula_structural       NC8NC6H8C7OH6C6BrH5Zn2C4O8
_chemical_formula_sum              "N2 C31 H19 O9 Br1 Zn2"
_cell_length_a       17.457602349358154
_cell_length_b       9.274078303013075
_cell_length_c       10.302972455390005
_cell_angle_alpha    85.7362378815819
_cell_angle_beta     92.87591776842113
_cell_angle_gamma    91.09880916489897

_space_group_name_H-M_alt    "P 1"
_space_group_IT_number       1

loop_
  _space_group_symop_operation_xyz
  'x, y, z'

loop_
  _atom_site_type_symbol
  _atom_site_label
  _atom_site_symmetry_multiplicity
  _atom_site_fract_x
  _atom_site_fract_y
  _atom_site_fract_z
  _atom_site_occupancy
  N   N1        1.0  0.7137157781117233  0.6127789334678884  0.6307036517905984  1.0000
  C   C1        1.0  0.6529131448758342  0.561797804546829  0.6199730797024361  1.0000
  C   C2        1.0  0.5772720518431026  0.49838362362665434  0.6066338015594546  1.0000
  C   C3        1.0  0.5185026784634104  0.5429667473794171  0.6816102421115426  1.0000
  C   C4        1.0  0.4442869702187707  0.4819040286769041  0.6688906580658345  1.0000
  C   C5        1.0  0.3819132542897722  0.5289772405850826  0.748293222533978  1.0000
  C   C6        1.0  0.3072558753830639  0.5494789725377949  0.6925957272769467  1.0000
  C   C7        1.0  0.24848760172080092  0.5938579220873692  0.7676796118563336  1.0000
  C   C8        1.0  0.1723884354604449  0.6150322110872646  0.709768948778049  1.0000
  N   N2        1.0  0.11121766053781851  0.6320492574006824  0.6632089102198238  1.0000
  C   C9        1.0  0.2638830867897201  0.6180050475679961  0.8989699679246794  1.0000
  C   C10       1.0  0.3377534299260052  0.5979351251845697  0.955055935730877  1.0000
  C   C11       1.0  0.396509019370223  0.5537560511696797  0.8804300852911195  1.0000
  C   C12       1.0  0.43013334186812074  0.3755061926207026  0.579760441301181  1.0000
  C   C13       1.0  0.4888893265809343  0.33123242797929575  0.5051845901297589  1.0000
  C   C14       1.0  0.5623195955806134  0.39241989248867126  0.5184542319231051  1.0000
  H   H1        1.0  0.5303959692932947  0.6264391190038223  0.7484127286510058  1.0000
  H   H2        1.0  0.29500060422041413  0.5328608517141009  0.590566367118478  1.0000
  H   H3        1.0  0.2188369925761691  0.652287582769528  0.9578659580735192  1.0000
  H   H4        1.0  0.3494856525608535  0.6162823912425246  0.0567161729182617  1.0000
  H   H5        1.0  0.45308450734595973  0.5371136721696337  0.9264826726516582  1.0000
  H   H6        1.0  0.3739204518609511  0.32517964890509354  0.5689952838942645  1.0000
  H   H7        1.0  0.47750315274849003  0.24899943281057535  0.4371870554320012  1.0000
  H   H8        1.0  0.6073709471977193  0.3571719124636923  0.4600669565900015  1.0000
  C   C15       1.0  0.9147565264135396  0.19905764123665048  0.6459793556404203  1.0000
  C   C16       1.0  0.8999260359307386  0.2818029731470295  0.5275713567673059  1.0000
  C   C17       1.0  0.8784684976415912  0.21566052335445351  0.41305596442200976  1.0000
  C   C18       1.0  0.8716376382370844  0.06468572655316351  0.4168599661943535  1.0000
  C   C19       1.0  0.887331252427839  0.9809236387100305  0.5329223602697934  1.0000
  C   C20       1.0  0.9101843156503936  0.04575975840837443  0.6479450435011387  1.0000
  C   C21       1.0  0.8626668888442783  0.30581218015876166  0.2909378070670945  1.0000
  O   O1        1.0  0.8429541694036685  0.2495595006274125  0.186531271546871  1.0000
  H   H9        1.0  0.9123973513762835  0.2755710908284692  0.9654318241097668  1.0000
  H   H10       1.0  0.9033567989990778  0.39883490401147714  0.5250517794825926  1.0000
  H   H11       1.0  0.8548596871988408  0.01102079998131944  0.32978074307687844  1.0000
  H   H12       1.0  0.8833331996104058  0.8642926721195734  0.5319009411818318  1.0000
  H   H13       1.0  0.9119535892971202  0.7469552049418291  0.8627961725398343  1.0000
  H   H14       1.0  0.867961784438954  0.4223834526645316  0.2900066009035047  1.0000
  C   C22       1.0  0.9124703904202255  0.622408698582019  0.2657196281989376  1.0000
  C   C23       1.0  0.9356205717025556  0.47762713332656026  0.27616072086241417  1.0000
  C   C24       1.0  0.9471043534618837  0.4058076620063813  0.16440223476715854  1.0000
  C   C25       1.0  0.935620701281772  0.47762708332415404  0.041078340701801164  1.0000
  C   C26       1.0  0.9124704266885735  0.6224087042866095  0.028204713250136848  1.0000
  C   C27       1.0  0.9010070896600829  0.6941002995978338  0.14118979307907464  1.0000
  Br  Br1       1.0  0.9785924313027561  0.2088797000996232  0.18025829934053084  1.0000
  H   H15       1.0  0.9037571870898985  0.6769033893048582  0.5890912695686554  1.0000
  H   H16       1.0  0.9448361208372157  0.41999223604675673  0.37080059254532016  1.0000
  H   H17       1.0  0.9448364236543657  0.4199922990357732  0.9557197148119534  1.0000
  H   H18       1.0  0.8831527425975835  0.8057613926539022  0.13219916211102856  1.0000
  H   H19       1.0  0.9037561120428974  0.6769027957215359  0.6960575561755467  1.0000
  Zn  Zn1       1.0  0.8284262557766819  0.618336066554519  0.6400914542296594  1.0000
  Zn  Zn2       1.0  0.9965072324526862  0.6264803041980502  0.6538317093444204  1.0000
  C   C28       1.0  0.9124997307535704  0.6166653474116084  0.8840652490081702  1.0000
  C   C29       1.0  0.9124355830920274  0.6281529313029921  0.409858196256226  1.0000
  C   C30       1.0  0.91104460146703  0.885714860053203  0.6423996772083378  1.0000
  C   C31       1.0  0.9138906643776235  0.3591016837946306  0.6515238285620506  1.0000
  O   O2        1.0  0.9762097900855623  0.6331651544956776  0.4634467570250713  1.0000
  O   O3        1.0  0.97629510180105  0.6178333245581975  0.8409048476965253  1.0000
  O   O4        1.0  0.9751192066358001  0.8350941669477583  0.6457581218311719  1.0000
  O   O5        1.0  0.9773856278404633  0.415904319640088  0.6585933808833444  1.0000
  O   O6        1.0  0.8475478030311082  0.8289120483348218  0.6353297779950353  1.0000
  O   O7        1.0  0.8487236888395053  0.6116529380343687  0.8304764386586965  1.0000
  O   O8        1.0  0.8486383774462233  0.6269847177357479  0.4530167869914461  1.0000
  O   O9        1.0  0.8498142152536763  0.40972387256852794  0.6481635081610997  1.0000
