data_image0
_chemical_formula_structural       NC8NC6H8C9H8C6BrH5Zn2C4O8
_chemical_formula_sum              "N2 C33 H21 Br1 Zn2 O8"
_cell_length_a       17.457602349358154
_cell_length_b       9.275152443626249
_cell_length_c       10.302972455390005
_cell_angle_alpha    85.36323497079522
_cell_angle_beta     92.87591776842113
_cell_angle_gamma    92.27213218982278

_space_group_name_H-M_alt    "P 1"
_space_group_IT_number       1

loop_
  _space_group_symop_operation_xyz
  'x, y, z'

loop_
  _atom_site_type_symbol
  _atom_site_label
  _atom_site_symmetry_multiplicity
  _atom_site_fract_x
  _atom_site_fract_y
  _atom_site_fract_z
  _atom_site_occupancy
  N   N1        1.0  0.7310489132677662  0.614247369650269  0.6226343866589625  1.0000
  C   C1        1.0  0.6696983668742467  0.5632198223808715  0.6121588899797339  1.0000
  C   C2        1.0  0.5933757380489216  0.49974790281108605  0.5991368939070545  1.0000
  C   C3        1.0  0.5350855160852411  0.5443716195246593  0.6738902703810521  1.0000
  C   C4        1.0  0.4602135440872114  0.48325330318028903  0.6614762032643189  1.0000
  C   C5        1.0  0.3983457414779504  0.530369375276031  0.7406432449217395  1.0000
  C   C6        1.0  0.3239087023112368  0.5508897740679342  0.6848431727353157  1.0000
  C   C7        1.0  0.2656173857288707  0.5953091306775851  0.7597050147875175  1.0000
  C   C8        1.0  0.1897457874292884  0.616502698880264  0.7016884097550262  1.0000
  N   N2        1.0  0.128757901033779  0.6335352392245162  0.6550432292994148  1.0000
  C   C9        1.0  0.2812723889381252  0.619478242130387  0.8908745548198733  1.0000
  C   C10       1.0  0.35492703315249097  0.5993900460706414  0.9470609390697147  1.0000
  C   C11       1.0  0.4132078136535375  0.555170746982468  0.8726561311138952  1.0000
  C   C12       1.0  0.4449164186121866  0.37675859183079763  0.5728783299788327  1.0000
  C   C13       1.0  0.5031965767064405  0.33244451590023605  0.49852399505979594  1.0000
  C   C14       1.0  0.5772844501491019  0.3936876916326004  0.5114874957797357  1.0000
  H   H1        1.0  0.5478759155449177  0.6279199927932939  0.7402751171040307  1.0000
  H   H2        1.0  0.3114748300221096  0.5342565224353029  0.5828969585183852  1.0000
  H   H3        1.0  0.23659474188357954  0.6537919916007005  0.9495990181337659  1.0000
  H   H4        1.0  0.36685644068089607  0.617754017325302  0.0486293788314327  1.0000
  H   H5        1.0  0.4696044397911513  0.5385132150864012  0.9187919857876319  1.0000
  H   H6        1.0  0.3881626505180969  0.3263862257670709  0.5623649728750906  1.0000
  H   H7        1.0  0.4909266142840245  0.2501366475402893  0.4309378991691899  1.0000
  H   H8        1.0  0.6219569786125368  0.35840761830075185  0.45327657772057317  1.0000
  C   C15       1.0  0.9276432449365497  0.20014938393530168  0.6399800746388709  1.0000
  C   C16       1.0  0.8999594439861396  0.28154618646009344  0.5274288298610432  1.0000
  C   C17       1.0  0.879409081310819  0.21510819605530518  0.4133938770476786  1.0000
  C   C18       1.0  0.8862198403194577  0.06609656054468172  0.40965917292771703  1.0000
  C   C19       1.0  0.9124029785765294  0.982938832949214  0.5211559920681375  1.0000
  C   C20       1.0  0.9321708495628939  0.047622479368389925  0.6377093637101034  1.0000
  C   C21       1.0  0.8654284095814595  0.9979387156402867  0.29160871760819984  1.0000
  C   C22       1.0  0.8480204448097469  0.9408391156210225  0.19276010054557902  1.0000
  C   C23       1.0  0.8268993205008048  0.871546868494423  0.07282467144488347  1.0000
  H   H9        1.0  0.03791378273348078  0.2871486765488931  0.9082477045389177  1.0000
  H   H10       1.0  0.8959169544422095  0.39786762230957806  0.5266910346022646  1.0000
  H   H11       1.0  0.8588912038024502  0.2803528929802461  0.3276386545020509  1.0000
  H   H12       1.0  0.9156340403929817  0.8667855008189624  0.5177975645543005  1.0000
  H   H13       1.0  0.003952618358114446  0.7558043162070601  0.8208988308233525  1.0000
  H   H14       1.0  0.840928431104565  0.7555054149739993  0.08609662365839066  1.0000
  H   H15       1.0  0.7644387573884618  0.8811002598103798  0.04996146679274038  1.0000
  H   H16       1.0  0.8593076919715482  0.9254671181981943  0.9914297539818189  1.0000
  C   C24       1.0  0.9299070202442482  0.6238859026712891  0.2576021821751475  1.0000
  C   C25       1.0  0.9515011801856498  0.4789725137141745  0.26876766477947456  1.0000
  C   C26       1.0  0.9622130913696649  0.4070876507224537  0.15736851519567163  1.0000
  C   C27       1.0  0.9515013092274717  0.4789724636662409  0.0336852848690401  1.0000
  C   C28       1.0  0.9299070565739058  0.6238859083810735  0.020087267197804737  1.0000
  C   C29       1.0  0.9192142157896895  0.6956427789326565  0.13271365032115545  1.0000
  Br  Br1       1.0  0.9915847111461987  0.209980385788737  0.17420987533775634  1.0000
  H   H17       1.0  0.92177949162729  0.6784302108425859  0.5807011686269574  1.0000
  H   H18       1.0  0.9600973056389083  0.4212851398259667  0.36369590286978726  1.0000
  H   H19       1.0  0.9600976091330247  0.42128520287233484  0.9486150248212648  1.0000
  H   H20       1.0  0.9025599320324879  0.8074055394806579  0.12316434206258875  1.0000
  H   H21       1.0  0.9217784102008281  0.6784296167188053  0.6876674582037414  1.0000
  Zn  Zn1       1.0  0.845819115509275  0.6198095625098949  0.631994384927645  1.0000
  Zn  Zn2       1.0  0.013987621336912781  0.6279612154866658  0.6456938917343296  1.0000
  C   C30       1.0  0.9298746346460227  0.6181373221762068  0.8759765388652725  1.0000
  C   C31       1.0  0.9299339483219723  0.6296353655195861  0.4017120099408549  1.0000
  C   C32       1.0  0.9313110805589776  0.8874318045597887  0.6329648235822944  1.0000
  C   C33       1.0  0.9284974357628145  0.36033914668963996  0.6447237944099362  1.0000
  O   O1        1.0  0.9937620235427195  0.634652152344483  0.45527549290331226  1.0000
  O   O2        1.0  0.9936825583783871  0.6193063627666857  0.8328102937785957  1.0000
  O   O3        1.0  0.9948416463079109  0.836765021283032  0.6365765402347534  1.0000
  O   O4        1.0  0.9926028782838175  0.4171935013689676  0.6515091444023797  1.0000
  O   O5        1.0  0.8672038011747212  0.8305772738474051  0.6261791275777928  1.0000
  O   O6        1.0  0.866044722503751  0.613120348997235  0.8224128072537302  1.0000
  O   O7        1.0  0.8661241874503826  0.6284660882931914  0.44487644563399775  1.0000
  O   O8        1.0  0.8649650421332097  0.4110074269966568  0.6411101944960382  1.0000
