data_image0
_chemical_formula_structural       NC9NC5H8C6OCH8C6H6Zn2C4O8
_chemical_formula_sum              "N2 C31 H22 O9 Zn2"
_cell_length_a       17.807436237873137
_cell_length_b       9.273888216677433
_cell_length_c       10.681121600428288
_cell_angle_alpha    85.7605498729626
_cell_angle_beta     89.39214167786866
_cell_angle_gamma    87.81887448081709

_space_group_name_H-M_alt    "P 1"
_space_group_IT_number       1

loop_
  _space_group_symop_operation_xyz
  'x, y, z'

loop_
  _atom_site_type_symbol
  _atom_site_label
  _atom_site_symmetry_multiplicity
  _atom_site_fract_x
  _atom_site_fract_y
  _atom_site_fract_z
  _atom_site_occupancy
  N   N1        1.0  0.6993828637943985  0.5413575806965483  0.6134624574977185  1.0000
  C   C1        1.0  0.6389989419001608  0.502273253283537  0.6027108500129561  1.0000
  C   C2        1.0  0.5638879797738818  0.45365665417316126  0.5893370178869586  1.0000
  C   C3        1.0  0.5462098253217533  0.3743383587139173  0.4878385230326785  1.0000
  C   C4        1.0  0.47328159548928417  0.3270115516656351  0.47477333421538104  1.0000
  C   C5        1.0  0.4169849859414732  0.35858372695867513  0.5631740445022835  1.0000
  C   C6        1.0  0.339480412333479  0.30841515452194823  0.5493686713314061  1.0000
  C   C7        1.0  0.2768310179671661  0.3992196321606043  0.5746632425400455  1.0000
  C   C8        1.0  0.2037616580050179  0.35166731536355833  0.5616105451865034  1.0000
  C   C9        1.0  0.1400466020385619  0.44546101211011346  0.5872653112882262  1.0000
  N   N2        1.0  0.0888327191379754  0.5208646552642575  0.6078910225284073  1.0000
  C   C10       1.0  0.19275964019497832  0.21302398881343532  0.5232379417957562  1.0000
  C   C11       1.0  0.254551744891126  0.12220412581210871  0.49793523276255125  1.0000
  C   C12       1.0  0.3275039557266161  0.16931823654445388  0.5107912647044555  1.0000
  C   C13       1.0  0.4353516844273033  0.43845110203465154  0.6648856444024565  1.0000
  C   C14       1.0  0.5083338872830582  0.48556644358632006  0.6778000852872923  1.0000
  H   H1        1.0  0.5887348871101149  0.349365050232338  0.41860984945856794  1.0000
  H   H2        1.0  0.4606796918787409  0.2673884925967174  0.39462961951340847  1.0000
  H   H3        1.0  0.2847645507308736  0.5074713756947731  0.6028452026372322  1.0000
  H   H4        1.0  0.1364915484635381  0.17522102788925342  0.5129040304733969  1.0000
  H   H5        1.0  0.2459151232765296  0.014863255751525584  0.4685985732976532  1.0000
  H   H6        1.0  0.3745251901733103  0.09629691588596834  0.49219634749682895  1.0000
  H   H7        1.0  0.3935466209795198  0.4628256921704972  0.7353607137094924  1.0000
  H   H8        1.0  0.5214570790043472  0.546545185546442  0.7569435955999533  1.0000
  C   C15       1.0  0.896317837696894  0.10753272628355903  0.6093657086456277  1.0000
  C   C16       1.0  0.8787698279437535  0.19171887602154625  0.497763376571988  1.0000
  C   C17       1.0  0.8548288533601529  0.12825400391620367  0.39116550699714625  1.0000
  C   C18       1.0  0.848296913853147  0.9776168311401315  0.3957698027156966  1.0000
  C   C19       1.0  0.8666312896983518  0.892194198511649  0.5049520387805373  1.0000
  C   C20       1.0  0.8919049633067708  0.9546780666064651  0.6119985092349496  1.0000
  O   O1        1.0  0.8377362926596433  0.21858328951485895  0.28323831509915487  1.0000
  C   C21       1.0  0.812655809700036  0.1689784048220242  0.16835360595670723  1.0000
  H   H9        1.0  0.9024381768597524  0.18389528090161367  0.9174481067912557  1.0000
  H   H10       1.0  0.8819436522194019  0.3084274381400083  0.49400613485450195  1.0000
  H   H11       1.0  0.8297487495651561  0.9251558782855022  0.3150441209651751  1.0000
  H   H12       1.0  0.8627263937572418  0.7759312560145792  0.5045909128250008  1.0000
  H   H13       1.0  0.899175980273504  0.6553648337323427  0.8185911453331429  1.0000
  H   H14       1.0  0.7587307247938766  0.11369193237385966  0.18355747059354255  1.0000
  H   H15       1.0  0.855798672765222  0.09409991548489094  0.13018643011554443  1.0000
  H   H16       1.0  0.8035165001582528  0.26314472181444715  0.09924963741668757  1.0000
  C   C22       1.0  0.89411142546509  0.5311053764968734  0.24293687867898406  1.0000
  C   C23       1.0  0.8407419500351566  0.45371362120245906  0.18203454023931798  1.0000
  C   C24       1.0  0.8407419026351607  0.45371371616047584  0.05115240124506859  1.0000
  C   C25       1.0  0.8941113660210674  0.5311054503126629  0.9784273154201992  1.0000
  C   C26       1.0  0.9474367932198456  0.6084330615956031  0.039329501999542105  1.0000
  C   C27       1.0  0.9474367837218548  0.6084330397347981  0.17022180073061843  1.0000
  H   H17       1.0  0.9480821084038562  0.6093697333785733  0.5356686147819905  1.0000
  H   H18       1.0  0.7989084357169142  0.3930503055531642  0.23547909280919765  1.0000
  H   H19       1.0  0.7989084196687689  0.393050374276124  0.006975064019200561  1.0000
  H   H20       1.0  0.9892757700775979  0.6691043737412323  0.9859292317865349  1.0000
  H   H21       1.0  0.9892757324788317  0.6691043251686737  0.21435359965543999  1.0000
  H   H22       1.0  0.9480823455591169  0.6093692184924142  0.673739584151483  1.0000
  Zn  Zn1       1.0  0.8117696983222301  0.535439916270346  0.6118618922370946  1.0000
  Zn  Zn2       1.0  0.9764459276601322  0.526770561856235  0.609501846457589  1.0000
  C   C28       1.0  0.8941396538145239  0.5253592043118667  0.8393860551399472  1.0000
  C   C29       1.0  0.8940777609466972  0.5368529991250093  0.38197778635227553  1.0000
  C   C30       1.0  0.8927352361545542  0.7945497681141294  0.6065106073636879  1.0000
  C   C31       1.0  0.8954821314415037  0.26766070528663066  0.6148532963131856  1.0000
  O   O2        1.0  0.9565602664230062  0.5354856861481747  0.42774554049087077  1.0000
  O   O3        1.0  0.9566426017254339  0.5201455897269616  0.7918267169895383  1.0000
  O   O4        1.0  0.9555076742577412  0.7375204187271192  0.6037781620125893  1.0000
  O   O5        1.0  0.9576951376441112  0.31811087042472397  0.6157940024090702  1.0000
  O   O6        1.0  0.8305204321423278  0.744099610661852  0.6055697370843989  1.0000
  O   O7        1.0  0.8316553505792604  0.5267265146578062  0.7936182306754829  1.0000
  O   O8        1.0  0.8315730155887149  0.5420665608114832  0.42953554839729735  1.0000
  O   O9        1.0  0.8327078868604842  0.32469173477132074  0.6175841041730328  1.0000
