data_image0
_chemical_formula_structural       NC9NC5H8C6NCOH7C6ClH5Zn2C4O8
_chemical_formula_sum              "N3 C31 H20 O9 Cl1 Zn2"
_cell_length_a       17.807436237873137
_cell_length_b       10.299619329790078
_cell_length_c       10.302974078461048
_cell_angle_alpha    85.5666042961525
_cell_angle_beta     89.39214410348855
_cell_angle_gamma    88.41592915749165

_space_group_name_H-M_alt    "P 1"
_space_group_IT_number       1

loop_
  _space_group_symop_operation_xyz
  'x, y, z'

loop_
  _atom_site_type_symbol
  _atom_site_label
  _atom_site_symmetry_multiplicity
  _atom_site_fract_x
  _atom_site_fract_y
  _atom_site_fract_z
  _atom_site_occupancy
  N   N1        1.0  0.7077744859984415  0.3877436557927334  0.557744673172673  1.0000
  C   C1        1.0  0.6471777758336701  0.35255453343406096  0.5467208767101537  1.0000
  C   C2        1.0  0.5718021285323175  0.3087831404488519  0.5330084708673084  1.0000
  C   C3        1.0  0.5536921363634685  0.23736983784997046  0.4280331514685143  1.0000
  C   C4        1.0  0.4805062434180119  0.19475969424195205  0.41463667695179773  1.0000
  C   C5        1.0  0.4243815255940165  0.22318532950641856  0.506183043153507  1.0000
  C   C6        1.0  0.3466038173441998  0.17801663527859968  0.4920281187982829  1.0000
  C   C7        1.0  0.2844487932117908  0.2597713969602813  0.5179666417374065  1.0000
  C   C8        1.0  0.2111205423874723  0.2169582182496601  0.5045838235248166  1.0000
  C   C9        1.0  0.1479161309602578  0.3014042888438624  0.530886398307084  1.0000
  N   N2        1.0  0.09711277094078  0.3692930872782745  0.552032941600269  1.0000
  C   C10       1.0  0.199363703505254  0.09213230197532596  0.46523711519724875  1.0000
  C   C11       1.0  0.2606613542042852  0.010363688260604631  0.4392902039448412  1.0000
  C   C12       1.0  0.3338700701581739  0.05278233321410375  0.4524705111847336  1.0000
  C   C13       1.0  0.4431830511730008  0.29509298958463126  0.6113775692475443  1.0000
  C   C14       1.0  0.5164217658497126  0.3375127426864144  0.6246184253445148  1.0000
  H   H1        1.0  0.5960812333532828  0.21488541434105812  0.35634181888358185  1.0000
  H   H2        1.0  0.4675797300342028  0.14107876848913858  0.3317382252724417  1.0000
  H   H3        1.0  0.2929716849624454  0.3572346029813982  0.5468438782531151  1.0000
  H   H4        1.0  0.1428897996966982  0.05809684311549357  0.4546423318469901  1.0000
  H   H5        1.0  0.2514403326675653  0.9137205767785134  0.4092130342574869  1.0000
  H   H6        1.0  0.3804937519285395  0.98703843116406  0.4334218354706556  1.0000
  H   H7        1.0  0.4015106929369754  0.3170383638146961  0.6843629191087113  1.0000
  H   H8        1.0  0.5298769481025615  0.39241424199212926  0.7064757159365269  1.0000
  C   C15       1.0  0.9023475740659731  0.9971544520379879  0.5548564414939763  1.0000
  C   C16       1.0  0.8661122802045864  0.006963075539777819  0.43388195501915483  1.0000
  C   C17       1.0  0.8489748896559146  0.8951239475649806  0.3720112098712829  1.0000
  C   C18       1.0  0.8663360107199463  0.7717940158158053  0.43397861454557507  1.0000
  C   C19       1.0  0.9025468278140446  0.7598720226610065  0.5549323653724207  1.0000
  C   C20       1.0  0.920613950851964  0.8731698498528958  0.6144382481891473  1.0000
  N   N3        1.0  0.8108527057727504  0.9090089760391125  0.2491433367362279  1.0000
  C   C21       1.0  0.8226650540249927  0.8237707888639597  0.14681962115508007  1.0000
  O   O1        1.0  0.8754069437141022  0.739546975584229  0.15150367056639946  1.0000
  H   H9        1.0  0.969984620982824  0.18588795713149975  0.7837031324466996  1.0000
  H   H10       1.0  0.8515539362754068  0.101755150531889  0.38651269894432594  1.0000
  H   H11       1.0  0.8502715456457832  0.6851618896659813  0.38930636490503057  1.0000
  H   H12       1.0  0.9485561672735925  0.8647325410627561  0.7076887125205416  1.0000
  H   H13       1.0  0.9154382324718873  0.42782503777017716  0.602293063912964  1.0000
  H   H14       1.0  0.7760788996939434  0.9912584128630677  0.22862731214266008  1.0000
  H   H15       1.0  0.7870011072751767  0.8343313544467309  0.06208970727898344  1.0000
  C   C22       1.0  0.9024472213148135  0.37851323812854254  0.17365189581886442  1.0000
  C   C23       1.0  0.8893440177428735  0.24424886548424896  0.18306385313408025  1.0000
  C   C24       1.0  0.8828426040466588  0.17763053889021574  0.07077701788499913  1.0000
  C   C25       1.0  0.8893440513619091  0.24424893723509333  0.9479559536773539  1.0000
  C   C26       1.0  0.9024472193810296  0.3785131711833831  0.936136914913726  1.0000
  C   C27       1.0  0.9089349623996398  0.4449909025323002  0.049638418692757647  1.0000
  Cl  Cl1       1.0  0.8664735923571093  0.009902440769822496  0.0840383312485351  1.0000
  H   H16       1.0  0.9073834051226874  0.42908828937457  0.4974095066820141  1.0000
  H   H17       1.0  0.8841325779142822  0.19084878865291732  0.2773324379123614  1.0000
  H   H18       1.0  0.8841326304067096  0.19084876763414527  0.8621314710664629  1.0000
  H   H19       1.0  0.9190405125809703  0.5485396182135047  0.041451310179073886  1.0000
  H   H20       1.0  0.9073832621659631  0.429088284656743  0.6043818782966595  1.0000
  Zn  Zn1       1.0  0.8201291027644878  0.3824157550340781  0.5561038987788238  1.0000
  Zn  Zn2       1.0  0.984758133211467  0.3746104020054932  0.5536843880134583  1.0000
  C   C28       1.0  0.9024441816551994  0.37333968009404317  0.7920104026767614  1.0000
  C   C29       1.0  0.9024448524927757  0.3836880303087431  0.3177779852817866  1.0000
  C   C30       1.0  0.9025053200254184  0.6157023222216951  0.5497445914678347  1.0000
  C   C31       1.0  0.9023836575385074  0.14132383056302156  0.5600438663767431  1.0000
  O   O2        1.0  0.9649199150973737  0.3824569813754892  0.36522982522379066  1.0000
  O   O3        1.0  0.9649187436474245  0.3686456669729352  0.7427218362279187  1.0000
  O   O4        1.0  0.9649672714500889  0.5643566055152998  0.5470904921181123  1.0000
  O   O5        1.0  0.9648713311204019  0.18674605478666373  0.5608610728177477  1.0000
  O   O6        1.0  0.8400158486757449  0.5702801049179052  0.5489272147933668  1.0000
  O   O7        1.0  0.8399673212773219  0.374570726658608  0.744558489835975  1.0000
  O   O8        1.0  0.8399684927654394  0.3883819958035124  0.36706491794351814  1.0000
  O   O9        1.0  0.8399199087829669  0.19267105992614564  0.5626962628721561  1.0000
