data_image0
_chemical_formula_structural       NC8NC6H8C6OCH8C9H8Zn2C4O8
_chemical_formula_sum              "N2 C34 H24 O9 Zn2"
_cell_length_a       17.457602349358154
_cell_length_b       9.273888216677433
_cell_length_c       9.275155815604963
_cell_angle_alpha    86.25620799071866
_cell_angle_beta     93.22066324705655
_cell_angle_gamma    91.10627454168798

_space_group_name_H-M_alt    "P 1"
_space_group_IT_number       1

loop_
  _space_group_symop_operation_xyz
  'x, y, z'

loop_
  _atom_site_type_symbol
  _atom_site_label
  _atom_site_symmetry_multiplicity
  _atom_site_fract_x
  _atom_site_fract_y
  _atom_site_fract_z
  _atom_site_occupancy
  N   N1        1.0  0.7088683227790442  0.5994338812050697  0.48009428705671464  1.0000
  C   C1        1.0  0.6480224942259424  0.5483484839406425  0.46815592622815005  1.0000
  C   C2        1.0  0.5723277014795296  0.4848046862232982  0.4533152173026247  1.0000
  C   C3        1.0  0.5138346312775994  0.5301178748192017  0.5365958464818623  1.0000
  C   C4        1.0  0.43956766934323827  0.4689315637479108  0.5224443253746602  1.0000
  C   C5        1.0  0.3774865561350815  0.516777939496815  0.6106412426699603  1.0000
  C   C6        1.0  0.3026283102651898  0.5367370685639117  0.5487980457188677  1.0000
  C   C7        1.0  0.2441367137896068  0.5818471304768926  0.6321979031401928  1.0000
  C   C8        1.0  0.167828687385338  0.6024572566887085  0.5678972743534383  1.0000
  N   N2        1.0  0.10648998881658502  0.619020717465729  0.5161997151695823  1.0000
  C   C9        1.0  0.26001161600716405  0.6072729273987734  0.7780062924122901  1.0000
  C   C10       1.0  0.3340842741442971  0.5877493895763692  0.8402810749814489  1.0000
  C   C11       1.0  0.3925648684156158  0.5428436635483149  0.7573899509619717  1.0000
  C   C12       1.0  0.4250812070931494  0.3616661048898384  0.4234191792854167  1.0000
  C   C13       1.0  0.48356237070515157  0.3166661756991036  0.34058353847891265  1.0000
  C   C14       1.0  0.5570459039041803  0.3779825896196458  0.35534595269450153  1.0000
  H   H1        1.0  0.525977684003387  0.6142405055659097  0.610816127872289  1.0000
  H   H2        1.0  0.29000064657850516  0.519125246368549  0.43548725033544855  1.0000
  H   H3        1.0  0.2151825048257775  0.6421289515815622  0.8434251241619277  1.0000
  H   H4        1.0  0.3461876885275476  0.6070867532366586  0.953182707540625  1.0000
  H   H5        1.0  0.44930646534977436  0.5266499255960655  0.8085241477169545  1.0000
  H   H6        1.0  0.3688250495831176  0.3112349527648428  0.41144269471220607  1.0000
  H   H7        1.0  0.4719221906121791  0.233771275386641  0.2650366924117957  1.0000
  H   H8        1.0  0.6018820434106615  0.34216608029736606  0.2904916309806065  1.0000
  C   C15       1.0  0.9099307541040735  0.1858633989399907  0.4968789308849464  1.0000
  C   C16       1.0  0.8915928359483792  0.26711416474999883  0.3664799211727283  1.0000
  C   C17       1.0  0.8667463321115119  0.2001055953011197  0.24114436776969383  1.0000
  C   C18       1.0  0.8600943394855645  0.048841745907894696  0.2457319555873514  1.0000
  C   C19       1.0  0.8792260424258813  0.9664111013342926  0.37343066320950613  1.0000
  C   C20       1.0  0.9054349724247507  0.03258054197951954  0.49942817428779485  1.0000
  O   O1        1.0  0.8488872999136686  0.2875835449051498  0.11502612002944579  1.0000
  C   C21       1.0  0.8228460737104577  0.23423384983264106  0.9800258615075403  1.0000
  H   H9        1.0  0.9173413494101829  0.26596760804350894  0.8522296508479932  1.0000
  H   H10       1.0  0.8948192624703645  0.38411187583230433  0.36250087764135386  1.0000
  H   H11       1.0  0.8408516348667557  0.9936541163173696  0.15077075977265708  1.0000
  H   H12       1.0  0.8752376380717053  0.8497420812534703  0.3725885832424063  1.0000
  H   H13       1.0  0.9136378251265038  0.7361027434951196  0.7380635620500688  1.0000
  H   H14       1.0  0.7678438920182047  0.17354348495281524  0.9916419826136287  1.0000
  H   H15       1.0  0.8667526348651914  0.16341618271061953  0.9407958442781346  1.0000
  H   H16       1.0  0.8132539721185834  0.3267605003992964  0.8994715074460702  1.0000
  C   C22       1.0  0.9062964504401084  0.6055085953832298  0.07478369605392232  1.0000
  C   C23       1.0  0.8459025497728909  0.6728003581656266  0.13735995874083673  1.0000
  C   C24       1.0  0.7905968060621543  0.7499267896944677  0.051332070445883504  1.0000
  C   C25       1.0  0.7946583026454176  0.7613829733199189  0.9011583767694713  1.0000
  C   C26       1.0  0.8535123541855073  0.6932405611363512  0.8367312200918544  1.0000
  C   C27       1.0  0.9090692774924671  0.6129353028179179  0.9215233606567246  1.0000
  C   C28       1.0  0.7377837757223876  0.8418012059282811  0.8126871837725265  1.0000
  C   C29       1.0  0.6901615859856115  0.90914061472198  0.7385782152110538  1.0000
  C   C30       1.0  0.6323806181043682  0.9908456264912369  0.6486480817560105  1.0000
  H   H17       1.0  0.08499898899796365  0.49796312526326747  0.2035620732988941  1.0000
  H   H18       1.0  0.8424767761014307  0.6686341642345452  0.25382646582575896  1.0000
  H   H19       1.0  0.7450326501282339  0.8018839358304948  0.10219698622653017  1.0000
  H   H20       1.0  0.8548939659785124  0.7000896768224394  0.7197340584697289  1.0000
  H   H21       1.0  0.028337806212106464  0.5352991742281219  0.658479353186368  1.0000
  H   H22       1.0  0.647949650521191  0.9957558865459302  0.5340772844278523  1.0000
  H   H23       1.0  0.575510291812514  0.9366923194080659  0.6583310211639621  1.0000
  H   H24       1.0  0.6298478053628082  0.10207199117250498  0.6853116531552224  1.0000
  Zn  Zn1       1.0  0.8236133943169957  0.6050824258560599  0.49052184634002316  1.0000
  Zn  Zn2       1.0  0.9917450044436937  0.613360456017467  0.5057839238079143  1.0000
  C   C31       1.0  0.9085739489432828  0.6057880593991765  0.7614540223495696  1.0000
  C   C32       1.0  0.9067862766141962  0.6126567331707666  0.2348520614410765  1.0000
  C   C33       1.0  0.906262021675665  0.8724823949710847  0.4932008279857161  1.0000
  C   C34       1.0  0.909098155958884  0.34596066332990905  0.5031053222461237  1.0000
  O   O2        1.0  0.9707557699663825  0.6181908931804114  0.2943643270312384  1.0000
  O   O3        1.0  0.9722124617923478  0.606535641494734  0.7135249021241441  1.0000
  O   O4        1.0  0.9703446960717235  0.8218946610793623  0.4969084761742979  1.0000
  O   O5        1.0  0.9726234779063236  0.4028318801361519  0.5109806397054817  1.0000
  O   O6        1.0  0.8427348634792656  0.8156109989139928  0.4853251252266788  1.0000
  O   O7        1.0  0.8446026197477196  0.6002537107749308  0.7019414795195549  1.0000
  O   O8        1.0  0.8431459225632498  0.6119088970204001  0.28277917091907945  1.0000
  O   O9        1.0  0.8450136309087739  0.3965498746123892  0.4993955916531496  1.0000
