data_image0
_chemical_formula_structural       NC8NC6H8C7NH5C9H8Zn2C4O8
_chemical_formula_sum              "N3 C34 H21 Zn2 O8"
_cell_length_a       17.457602349358154
_cell_length_b       10.302819778424748
_cell_length_c       9.275155815604963
_cell_angle_alpha    86.0528115518669
_cell_angle_beta     93.22066324705655
_cell_angle_gamma    91.68806980205999

_space_group_name_H-M_alt    "P 1"
_space_group_IT_number       1

loop_
  _space_group_symop_operation_xyz
  'x, y, z'

loop_
  _atom_site_type_symbol
  _atom_site_label
  _atom_site_symmetry_multiplicity
  _atom_site_fract_x
  _atom_site_fract_y
  _atom_site_fract_z
  _atom_site_occupancy
  N   N1        1.0  0.7173607630100488  0.44034175186481206  0.475278924806505  1.0000
  C   C1        1.0  0.656243688681774  0.3943377053986228  0.4634943650799521  1.0000
  C   C2        1.0  0.5802115003665247  0.3371144678519824  0.4488449653472346  1.0000
  C   C3        1.0  0.5219590275099109  0.3779204544024426  0.5319891716206147  1.0000
  C   C4        1.0  0.4473671874447093  0.32282020955070223  0.5180218620997901  1.0000
  C   C5        1.0  0.3855401219287345  0.36590741276452676  0.6060747299071443  1.0000
  C   C6        1.0  0.3107878521249103  0.3838812516734147  0.5441714426717419  1.0000
  C   C7        1.0  0.2525357744622739  0.4245043161001356  0.6274354887339395  1.0000
  C   C8        1.0  0.1763371806935546  0.4430643989162597  0.5630728097274802  1.0000
  N   N2        1.0  0.1150864283677319  0.4579803291043485  0.511325383484601  1.0000
  C   C9        1.0  0.2685456788598038  0.44740106557591175  0.773167329407112  1.0000
  C   C10       1.0  0.3425146737695894  0.42981949061981894  0.8355008908405464  1.0000
  C   C11       1.0  0.40075683418077535  0.38938043724220983  0.7527449629929617  1.0000
  C   C12       1.0  0.4323111827403134  0.2262242072140419  0.4193196565505748  1.0000
  C   C13       1.0  0.4905534123059992  0.18570032085273658  0.33661949553028414  1.0000
  C   C14       1.0  0.5643625144369601  0.24091772751279894  0.3511973064631859  1.0000
  H   H1        1.0  0.5345487422841183  0.45367559424598514  0.6059561878118693  1.0000
  H   H2        1.0  0.2980666757590766  0.36802123824460864  0.430913670614109  1.0000
  H   H3        1.0  0.2239016411006708  0.47879003858969726  0.838481221287078  1.0000
  H   H4        1.0  0.3547207628598347  0.4472334097434554  0.9483443050437887  1.0000
  H   H5        1.0  0.4574124479722155  0.37479745437216483  0.8039279136947879  1.0000
  H   H6        1.0  0.3757872532703181  0.18080932957899432  0.40749500336535194  1.0000
  H   H7        1.0  0.4784730889882076  0.11105079182890898  0.2613222183752617  1.0000
  H   H8        1.0  0.6090084806775894  0.2086638066792179  0.2864508163195427  1.0000
  C   C15       1.0  0.916227278240505  0.06790820525490116  0.49330869149445733  1.0000
  C   C16       1.0  0.8718512316308975  0.05701979119255185  0.6154945480541829  1.0000
  C   C17       1.0  0.8497737110163155  0.9345001214822747  0.6762831656733117  1.0000
  C   C18       1.0  0.8718512935855176  0.8217187841661058  0.6154945583924003  1.0000
  C   C19       1.0  0.9162272910327132  0.8304042333366445  0.49330873549063425  1.0000
  C   C20       1.0  0.9381834737034048  0.9539986070544454  0.4328542233398125  1.0000
  C   C21       1.0  0.8042818322182531  0.9244670131989474  0.8015416315722415  1.0000
  N   N3        1.0  0.7677212473080675  0.9164037066316827  0.9022083475695277  1.0000
  H   H9        1.0  0.9330358399089201  0.3993548972391079  0.44702704521475223  1.0000
  H   H10       1.0  0.8543498127735206  0.1435841924090373  0.6636830555041724  1.0000
  H   H11       1.0  0.8543499084417067  0.7274345922619477  0.6636830299357441  1.0000
  H   H12       1.0  0.9724047130439732  0.9615459237370511  0.33862889285199893  1.0000
  H   H13       1.0  0.9330359106768068  0.5063718206399783  0.4470271611680612  1.0000
  C   C22       1.0  0.9148211453005068  0.4458122277402239  0.06995004486430845  1.0000
  C   C23       1.0  0.8547845405991833  0.5064106286063126  0.13232371448497582  1.0000
  C   C24       1.0  0.7998883115409035  0.5758654656012836  0.04606362421453536  1.0000
  C   C25       1.0  0.8040106364934152  0.5861821281321136  0.8958554397881087  1.0000
  C   C26       1.0  0.8625028754137615  0.5248176900680497  0.8316334371985241  1.0000
  C   C27       1.0  0.9176334055984304  0.4525002171111925  0.9166673501266942  1.0000
  C   C28       1.0  0.7475631025470469  0.6586013380776536  0.8071421342999376  1.0000
  C   C29       1.0  0.7002984617599911  0.7192426457123147  0.7328304292259604  1.0000
  C   C30       1.0  0.6429513192073081  0.7928206417587658  0.6426543092165815  1.0000
  H   H14       1.0  0.0929526546411863  0.34896406623885423  0.1990522056698778  1.0000
  H   H15       1.0  0.851336645880166  0.5026588367155587  0.248802764591038  1.0000
  H   H16       1.0  0.7546000300668896  0.6226545500185012  0.09677211434791344  1.0000
  H   H17       1.0  0.8639208536400921  0.5309855394564791  0.7146156551721985  1.0000
  H   H18       1.0  0.03648971335066187  0.38258638148781676  0.6538570791597693  1.0000
  H   H19       1.0  0.6585464234052298  0.7972424891714016  0.528068728732217  1.0000
  H   H20       1.0  0.5857934576011657  0.7440538436372452  0.6525002861803304  1.0000
  H   H21       1.0  0.6410090799588237  0.89298356742961  0.6789830151086855  1.0000
  Zn  Zn1       1.0  0.8321358263647325  0.44542844834767226  0.485689478204794  1.0000
  Zn  Zn2       1.0  0.00031138996597102064  0.4528830812679705  0.5009266332833235  1.0000
  C   C31       1.0  0.9171001276608636  0.4460638940923263  0.7566195297869625  1.0000
  C   C32       1.0  0.915348925611766  0.4522493561670111  0.2299968895913933  1.0000
  C   C33       1.0  0.916204254993193  0.6862307375136034  0.4875634076803941  1.0000
  C   C34       1.0  0.9162447411481387  0.21208095098065782  0.49905308336046095  1.0000
  O   O1        1.0  0.9793478034378358  0.45723304559428923  0.2894924936705605  1.0000
  O   O2        1.0  0.9807426099120643  0.44673711586024756  0.7086881588410512  1.0000
  O   O3        1.0  0.9800183260343107  0.6406748529517634  0.4914233586724668  1.0000
  O   O4        1.0  0.9800720295696335  0.26329531439258624  0.5067571805438511  1.0000
  O   O5        1.0  0.8523751293709787  0.6350162126805101  0.4798589257369896  1.0000
  O   O6        1.0  0.8530994129899387  0.441080034811522  0.6971236490357982  1.0000
  O   O7        1.0  0.8517046008097406  0.4515759056145472  0.27792625055475684  1.0000
  O   O8        1.0  0.8524288272974029  0.2576381659804845  0.49519104551606463  1.0000
