data_image0
_chemical_formula_structural       NC9NC5H8C6BrH5C6ClH5Zn2C4O8
_chemical_formula_sum              "N2 C30 H18 Br1 Cl1 Zn2 O8"
_cell_length_a       17.807436237873137
_cell_length_b       10.302969083221269
_cell_length_c       10.302974078461048
_cell_angle_alpha    85.56069307816827
_cell_angle_beta     89.39214410348855
_cell_angle_gamma    88.39001038669201

_space_group_name_H-M_alt    "P 1"
_space_group_IT_number       1

loop_
  _space_group_symop_operation_xyz
  'x, y, z'

loop_
  _atom_site_type_symbol
  _atom_site_label
  _atom_site_symmetry_multiplicity
  _atom_site_fract_x
  _atom_site_fract_y
  _atom_site_fract_z
  _atom_site_occupancy
  N   N1        1.0  0.7074119223562988  0.3873206224081711  0.5576064434089272  1.0000
  C   C1        1.0  0.6468244057456201  0.3521422269394894  0.5465861520491333  1.0000
  C   C2        1.0  0.5714601942131116  0.308384177024122  0.5328781061680767  1.0000
  C   C3        1.0  0.5533688595729637  0.23699264372750006  0.4279099000743267  1.0000
  C   C4        1.0  0.4801940990068871  0.19439548919941085  0.41451766985017824  1.0000
  C   C5        1.0  0.4240619546658915  0.2228124593241423  0.5060612046436288  1.0000
  C   C6        1.0  0.3462960472455881  0.17765753411304042  0.4919107794319648  1.0000
  C   C7        1.0  0.2841196637619516  0.259387374049705  0.5178411589785061  1.0000
  C   C8        1.0  0.210802598362218  0.21658724631129944  0.504462605282316  1.0000
  C   C9        1.0  0.1475761244490454  0.3010075747542711  0.5307567685972787  1.0000
  N   N2        1.0  0.09675502771723  0.36887567828004086  0.5518965496526904  1.0000
  C   C10       1.0  0.1990783716549133  0.09179938139437716  0.46512833056007796  1.0000
  C   C11       1.0  0.2603973853241715  0.010055693647262443  0.4391895640800203  1.0000
  C   C12       1.0  0.3335950189298579  0.052461407896399415  0.45236564610205954  1.0000
  C   C13       1.0  0.4428446935597218  0.2946981994024387  0.6112485681908786  1.0000
  C   C14       1.0  0.5160723255987152  0.337105021462057  0.6244851989596159  1.0000
  H   H1        1.0  0.5957638308713685  0.21451507426669414  0.3562208071080273  1.0000
  H   H2        1.0  0.4672816103688395  0.14073092729276793  0.3316245651970202  1.0000
  H   H3        1.0  0.2926170921535755  0.35682086983598027  0.5467086874217721  1.0000
  H   H4        1.0  0.1426133599928825  0.05777429774706788  0.45453693739893564  1.0000
  H   H5        1.0  0.2512016128875579  0.9134420424061707  0.40912202077748994  1.0000
  H   H6        1.0  0.3802358770342507  0.9867375469146631  0.4333235189778524  1.0000
  H   H7        1.0  0.4011666018477941  0.3166368839056961  0.684231732126797  1.0000
  H   H8        1.0  0.5295131642172303  0.39198978484758107  0.7063370209470718  1.0000
  C   C15       1.0  0.9020870562474264  0.9968504840673789  0.5547571173689856  1.0000
  C   C16       1.0  0.9799755253272062  0.9902467629378907  0.5754944235796791  1.0000
  C   C17       1.0  0.018612398276608655  0.8700331111657278  0.58578107526269  1.0000
  C   C18       1.0  0.979975584314194  0.7551644005453821  0.575494176372457  1.0000
  C   C19       1.0  0.9020870677980575  0.7593355008777692  0.5547570311291043  1.0000
  C   C20       1.0  0.8635189548038528  0.8807607040237355  0.5444885760462748  1.0000
  Br  Br1       1.0  0.12455412380259201  0.8627052689323681  0.6139877330678467  1.0000
  H   H9        1.0  0.8727705889777572  0.32663772732241014  0.5469512075441498  1.0000
  H   H10       1.0  0.01098145207110357  0.07810143978716999  0.583749695951957  1.0000
  H   H11       1.0  0.010981540473089302  0.6630205014623883  0.5837491098458754  1.0000
  H   H12       1.0  0.8034483719740467  0.8849156530245441  0.5284953414993556  1.0000
  H   H13       1.0  0.8727703738258763  0.4336037452937468  0.546953129121343  1.0000
  C   C21       1.0  0.9020870692231274  0.37809301850198884  0.17351458547452858  1.0000
  C   C22       1.0  0.8890189437290106  0.2438695743906767  0.1829399165367136  1.0000
  C   C23       1.0  0.8825349348200722  0.17727155542050133  0.07065971697680173  1.0000
  C   C24       1.0  0.8890189773293002  0.243869646119649  0.9478320170728396  1.0000
  C   C25       1.0  0.9020870673068339  0.37809295157723644  0.9359996045760584  1.0000
  C   C26       1.0  0.9085574422702571  0.4445504181607023  0.049494486670270676  1.0000
  Cl  Cl1       1.0  0.8662097439830918  0.009594586761040969  0.08393773732745236  1.0000
  H   H14       1.0  0.9070100397298958  0.42865265268232555  0.497267158680071  1.0000
  H   H15       1.0  0.8838214552712402  0.19048577579282377  0.27721382036651643  1.0000
  H   H16       1.0  0.8838215077691591  0.19048575478045882  0.8620128535227116  1.0000
  H   H17       1.0  0.9186359391846963  0.5480675685283287  0.04129706392135701  1.0000
  H   H18       1.0  0.9070098967744046  0.42865264796593716  0.6042395302951862  1.0000
  Zn  Zn1       1.0  0.819767931096357  0.38199434578224434  0.55596619971429  1.0000
  Zn  Zn2       1.0  0.9843990007796253  0.3741913721015282  0.553547466421118  1.0000
  C   C27       1.0  0.9020853812137525  0.3729210375510932  0.7918736076579336  1.0000
  C   C28       1.0  0.9020833484284165  0.3832662332223744  0.3176401594890128  1.0000
  C   C29       1.0  0.9020831996171443  0.6152097989671577  0.549583655296841  1.0000
  C   C30       1.0  0.9020854738479203  0.1409759146630576  0.5599301818912856  1.0000
  O   O1        1.0  0.9645587326583976  0.38203555955640756  0.3650921220528007  1.0000
  O   O2        1.0  0.9645611695697128  0.368228455331326  0.7425855087682993  1.0000
  O   O3        1.0  0.9645585656879421  0.5638797342525625  0.5469346703688349  1.0000
  O   O4        1.0  0.9645612803627382  0.1863842925850665  0.5607428639352248  1.0000
  O   O5        1.0  0.8396055953327398  0.5698014279628913  0.548770803018749  1.0000
  O   O6        1.0  0.8396081992111107  0.3741517088490929  0.7444215721955993  1.0000
  O   O7        1.0  0.8396057623497878  0.3879587678303211  0.3669266245962792  1.0000
  O   O8        1.0  0.8396083100510543  0.1923074915732701  0.56257746381431  1.0000
