data_image0
_chemical_formula_structural       NC9NC5H8C6H6C6ClH5Zn2C4O8
_chemical_formula_sum              "N2 C30 H19 Cl1 Zn2 O8"
_cell_length_a       17.807436237873137
_cell_length_b       10.681118228259551
_cell_length_c       10.302974078461048
_cell_angle_alpha    85.5607029968737
_cell_angle_beta     89.39214410348855
_cell_angle_gamma    88.3900060031841

_space_group_name_H-M_alt    "P 1"
_space_group_IT_number       1

loop_
  _space_group_symop_operation_xyz
  'x, y, z'

loop_
  _atom_site_type_symbol
  _atom_site_label
  _atom_site_symmetry_multiplicity
  _atom_site_fract_x
  _atom_site_fract_y
  _atom_site_fract_z
  _atom_site_occupancy
  N   N1        1.0  0.7074118597414428  0.3382045787922925  0.5576066852144794  1.0000
  C   C1        1.0  0.6468243447184936  0.3042716226101523  0.5465863877232038  1.0000
  C   C2        1.0  0.571460135160946  0.26206276201228995  0.5328783342152583  1.0000
  C   C3        1.0  0.5533688037429594  0.19319874081818011  0.4279101156781926  1.0000
  C   C4        1.0  0.4801940450994482  0.15210967581598767  0.4145178780294958  1.0000
  C   C5        1.0  0.4240618994758908  0.17952058496135104  0.5060614177759337  1.0000
  C   C6        1.0  0.3462959940935944  0.13596430338050847  0.4919109846939109  1.0000
  C   C7        1.0  0.2841196069211911  0.214800618692649  0.5178413784857019  1.0000
  C   C8        1.0  0.2108025434531838  0.1735157664477449  0.5044628173295864  1.0000
  C   C9        1.0  0.147576065729813  0.25494731748274146  0.5307569953587425  1.0000
  N   N2        1.0  0.0967549659348617  0.32041265074830116  0.5518967882433479  1.0000
  C   C10       1.0  0.1990783223780122  0.05314583212090729  0.4651285208572222  1.0000
  C   C11       1.0  0.2603973397366621  0.9742961592596526  0.4391897401295006  1.0000
  C   C12       1.0  0.3335949714284234  0.015200561644047372  0.4523658295427204  1.0000
  C   C13       1.0  0.4428446351252545  0.24886131627381758  0.6112487938526381  1.0000
  C   C14       1.0  0.5160722652502727  0.28976678724829497  0.6244854320127491  1.0000
  H   H1        1.0  0.5957637760558591  0.17151695660282074  0.3562210187941246  1.0000
  H   H2        1.0  0.46728155888347844  0.10034502869519879  0.33162476402277674  1.0000
  H   H3        1.0  0.2926170309152848  0.3087846250448385  0.546708923911315  1.0000
  H   H4        1.0  0.1426133122516579  0.020325356453513965  0.4545371217656162  1.0000
  H   H5        1.0  0.2512015716605761  0.881102972063858  0.4091221799875193  1.0000
  H   H6        1.0  0.3802358324991745  0.9518035571729416  0.43332369096305423  1.0000
  H   H7        1.0  0.40116654242315375  0.27002329395996805  0.6842319616123995  1.0000
  H   H8        1.0  0.5295131013916379  0.34270843641151894  0.7063372635664442  1.0000
  C   C15       1.0  0.9020870112559163  0.9615584606784567  0.5547572911168404  1.0000
  C   C16       1.0  0.9350671259280103  0.885538088551645  0.6573767826318253  1.0000
  C   C17       1.0  0.9350671144420698  0.754655850900729  0.6573767234445307  1.0000
  C   C18       1.0  0.90208699864246  0.6970488652116761  0.5547573474237792  1.0000
  C   C19       1.0  0.869134185018668  0.7730565899688896  0.452222657305815  1.0000
  C   C20       1.0  0.869134196466992  0.9039488475445749  0.45222270982934076  1.0000
  H   H9        1.0  0.868734985596005  0.2695786775804698  0.45098174022923354  1.0000
  H   H10       1.0  0.9609185402917602  0.9271323659615742  0.7378147423471264  1.0000
  H   H11       1.0  0.9609184479248392  0.6986283415867429  0.73781472076896  1.0000
  H   H12       1.0  0.8432793999895654  0.7315080096422268  0.3717741948083497  1.0000
  H   H13       1.0  0.8432793802970311  0.9599324495760154  0.371774184540669  1.0000
  H   H14       1.0  0.8687352621942527  0.4076493140512226  0.4509813849820732  1.0000
  C   C21       1.0  0.9020870070247469  0.3293036646134928  0.17351482567173893  1.0000
  C   C22       1.0  0.8890188875886249  0.19983220387845346  0.18294013333920645  1.0000
  C   C23       1.0  0.882534881685499  0.13559198969517183  0.07065992217147254  1.0000
  C   C24       1.0  0.8890189211889116  0.19983227306796714  0.9478322338753449  1.0000
  C   C25       1.0  0.9020870051084562  0.32930360005811266  0.9359998447732574  1.0000
  C   C26       1.0  0.9085573770724108  0.3934082379049533  0.04949473845079333  1.0000
  Cl  Cl1       1.0  0.8662096984163938  0.9738513771836945  0.08393791329656342  1.0000
  H   H15       1.0  0.907009975249574  0.3780733094016917  0.49726740768966415  1.0000
  H   H16       1.0  0.8838214015402609  0.1483383800549698  0.2772140278643833  1.0000
  H   H17       1.0  0.8838214540381808  0.14833835978651688  0.8620130610205754  1.0000
  H   H18       1.0  0.9186358693147424  0.49326051600705956  0.041297333744588105  1.0000
  H   H19       1.0  0.9070098322940827  0.37807330485227997  0.6042397793047782  1.0000
  Zn  Zn1       1.0  0.8197678687218952  0.3330668711466318  0.555966440591489  1.0000
  Zn  Zn2       1.0  0.9843989387573402  0.3255401502581292  0.5535477059382841  1.0000
  C   C27       1.0  0.9020853192488022  0.3243147900317098  0.7918738469536841  1.0000
  C   C28       1.0  0.9020832859965497  0.33429372928497325  0.3176404005878972  1.0000
  C   C29       1.0  0.9020831267168157  0.5580256746533734  0.5495839368227486  1.0000
  C   C30       1.0  0.9020854223515024  0.10058134264842056  0.5599303807597424  1.0000
  O   O1        1.0  0.9645586702820755  0.33310662580781414  0.3650923629371827  1.0000
  O   O2        1.0  0.9645611078165561  0.31978834177496074  0.7425857472461477  1.0000
  O   O3        1.0  0.9645584951043269  0.5085128752894164  0.5469349429480765  1.0000
  O   O4        1.0  0.9645612268168737  0.1443821038201849  0.5607430707182164  1.0000
  O   O5        1.0  0.8396055244818573  0.5142249201544398  0.5487710766301226  1.0000
  O   O6        1.0  0.8396081371906157  0.3255018912247365  0.7444218117058519  1.0000
  O   O7        1.0  0.8396056997061296  0.3388201316155286  0.3669268665130585  1.0000
  O   O8        1.0  0.8396082562378543  0.1500956006709362  0.5625776716296969  1.0000
