data_image0
_chemical_formula_structural       NC8NC6H8C6BrH5C7NH5Zn2C4O8
_chemical_formula_sum              "N3 C31 H18 Br1 Zn2 O8"
_cell_length_a       17.457602349358154
_cell_length_b       10.302969083221269
_cell_length_c       10.302823150593486
_cell_angle_alpha    85.56069318990711
_cell_angle_beta     92.87590926728866
_cell_angle_gamma    91.68807063265206

_space_group_name_H-M_alt    "P 1"
_space_group_IT_number       1

loop_
  _space_group_symop_operation_xyz
  'x, y, z'

loop_
  _atom_site_type_symbol
  _atom_site_label
  _atom_site_symmetry_multiplicity
  _atom_site_fract_x
  _atom_site_fract_y
  _atom_site_fract_z
  _atom_site_occupancy
  N   N1        1.0  0.7224249933359731  0.45236421612545974  0.6269394841457421  1.0000
  C   C1        1.0  0.6613470601938374  0.40645391844905787  0.6163271175000002  1.0000
  C   C2        1.0  0.5853635283319022  0.34934722064545753  0.6031348723384562  1.0000
  C   C3        1.0  0.5268348995793602  0.3894958850567476  0.6780088923601642  1.0000
  C   C4        1.0  0.4522894504739032  0.3345067615831714  0.6654308909757443  1.0000
  C   C5        1.0  0.390169925390041  0.37689783757326967  0.7447253179052407  1.0000
  C   C6        1.0  0.3156232618923775  0.39536037189247364  0.688979417520323  1.0000
  C   C7        1.0  0.2570946302959627  0.4353251702496017  0.7639613571495665  1.0000
  C   C8        1.0  0.18110981148566402  0.45439336599181135  0.7060006954252165  1.0000
  N   N2        1.0  0.12003093366945851  0.4697178177403507  0.65940047439961  1.0000
  C   C9        1.0  0.2726204994936921  0.4570704957860059  0.8951975541358639  1.0000
  C   C10       1.0  0.34638245898151493  0.43899682113246197  0.9513309301831661  1.0000
  C   C11       1.0  0.40489948565793477  0.39921201768573966  0.8768065672870322  1.0000
  C   C12       1.0  0.4375612759564304  0.2386917771354693  0.5765464024962286  1.0000
  C   C13       1.0  0.49607818656249153  0.19882170144771782  0.5020722594324949  1.0000
  C   C14       1.0  0.5698388700082654  0.2539231628643699  0.5152000369172354  1.0000
  H   H1        1.0  0.539178939808224  0.46466568464995595  0.7446185522592674  1.0000
  H   H2        1.0  0.303278261035975  0.38039517752077256  0.5869871606292216  1.0000
  H   H3        1.0  0.2277595275986885  0.4879431193492445  0.9540148052321458  1.0000
  H   H4        1.0  0.3582137488208645  0.4555191715904514  0.052950044264682083  1.0000
  H   H5        1.0  0.4613850997961044  0.3842249670590221  0.9228984599113963  1.0000
  H   H6        1.0  0.381076620841669  0.1933709564463464  0.5658979303053029  1.0000
  H   H7        1.0  0.4842479561372043  0.12476800400227717  0.434264656646445  1.0000
  H   H8        1.0  0.6146998858072871  0.22218112226687214  0.4568937494439773  1.0000
  C   C15       1.0  0.9212316228823476  0.07979364995713278  0.6431759301493349  1.0000
  C   C16       1.0  0.000773080865905218  0.08035145096257845  0.6715496710848354  1.0000
  C   C17       1.0  0.040229925282415424  0.9636902996326612  0.6856244054140013  1.0000
  C   C18       1.0  0.0007731411047466885  0.8452690939936789  0.671549429657035  1.0000
  C   C19       1.0  0.921231634678113  0.8422786678295556  0.6431758450406062  1.0000
  C   C20       1.0  0.8818450094757174  0.9601576927263684  0.629126048756022  1.0000
  Br  Br1       1.0  0.14842000025999558  0.9661033602740304  0.7242179289718425  1.0000
  H   H9        1.0  0.8912929865590704  0.40688536546909315  0.6324957400621862  1.0000
  H   H10       1.0  0.03243703123594899  0.17105699435621258  0.6828448637254452  1.0000
  H   H11       1.0  0.03243712151405198  0.7559760641596266  0.6828442862776467  1.0000
  H   H12       1.0  0.8204995780318048  0.9587894004351523  0.6072433020658734  1.0000
  H   H13       1.0  0.89129276684111  0.5138513636581086  0.6324976405741878  1.0000
  C   C21       1.0  0.9212316393052673  0.46103618497734167  0.26192781495481143  1.0000
  C   C22       1.0  0.8408347637130037  0.46693713840832407  0.25353466736010555  1.0000
  C   C23       1.0  0.8008365602703267  0.469872811790375  0.13225648956746516  1.0000
  C   C24       1.0  0.8408347487946051  0.4669370529830339  0.018233672293612502  1.0000
  C   C25       1.0  0.9212316388471713  0.46103617821261267  0.02442398153233949  1.0000
  C   C26       1.0  0.9610100111625665  0.4581165033987862  0.14678363830548635  1.0000
  C   C27       1.0  0.7184180032769736  0.4759219449142571  0.12478138060905075  1.0000
  N   N3        1.0  0.6521804128719991  0.4807836302617736  0.11877380073959554  1.0000
  H   H14       1.0  0.9516843042548505  0.4588013506033073  0.592429191181731  1.0000
  H   H15       1.0  0.8091272594366534  0.46926439809512255  0.3410831552269946  1.0000
  H   H16       1.0  0.8091272898645805  0.46926430383325535  0.9249336212134347  1.0000
  H   H17       1.0  0.02300918569086119  0.4535659227940636  0.15240678841920774  1.0000
  H   H18       1.0  0.9516842785498127  0.4588011410733699  0.6994464887755623  1.0000
  Zn  Zn1       1.0  0.837165478987208  0.4573686090989635  0.6363145208299898  1.0000
  Zn  Zn2       1.0  0.005290433767841662  0.46470278033615475  0.6500360668749428  1.0000
  C   C28       1.0  0.9212299103275  0.4558640498062554  0.8802957295833471  1.0000
  C   C29       1.0  0.9212278383468525  0.4662090578157123  0.4060551353863415  1.0000
  C   C30       1.0  0.9212276844477199  0.6981526102474886  0.6380020141932008  1.0000
  C   C31       1.0  0.9212300068573085  0.2239189350659745  0.6483489153111306  1.0000
  O   O1        1.0  0.9850291068590752  0.47072273701946155  0.4596328359566799  1.0000
  O   O2        1.0  0.985031592347124  0.45691585745977026  0.8371319912386808  1.0000
  O   O3        1.0  0.985028934832203  0.6525668966531186  0.6414780315954602  1.0000
  O   O4        1.0  0.9850317070043405  0.27507170461072694  0.6552866935738513  1.0000
  O   O5        1.0  0.8574241483779133  0.6469996823230122  0.6310638894417624  1.0000
  O   O6        1.0  0.8574268058893626  0.4513502029367895  0.8267177798610217  1.0000
  O   O7        1.0  0.8574243204523802  0.4651570372572209  0.44921706367723724  1.0000
  O   O8        1.0  0.8574269205945055  0.26950599556249366  0.6448710186311388  1.0000
