data_image0
_chemical_formula_structural       NC9NC5H8C7H8C6NCH9Zn2C4O8
_chemical_formula_sum              "N3 C32 H25 Zn2 O8"
_cell_length_a       17.807436237873137
_cell_length_b       9.274341958901593
_cell_length_c       9.273390368590327
_cell_angle_alpha    86.13543912927544
_cell_angle_beta     89.39974432744097
_cell_angle_gamma    87.76967926577302

_space_group_name_H-M_alt    "P 1"
_space_group_IT_number       1

loop_
  _space_group_symop_operation_xyz
  'x, y, z'

loop_
  _atom_site_type_symbol
  _atom_site_label
  _atom_site_symmetry_multiplicity
  _atom_site_fract_x
  _atom_site_fract_y
  _atom_site_fract_z
  _atom_site_occupancy
  N   N1        1.0  0.6989458777355056  0.5247686238689153  0.3979627413372724  1.0000
  C   C1        1.0  0.6385805501670275  0.48554300993602584  0.38574696018336785  1.0000
  C   C2        1.0  0.5634927173369704  0.43675066575293586  0.3705518547745341  1.0000
  C   C3        1.0  0.5458653387117453  0.3561703808932799  0.25405703367349597  1.0000
  C   C4        1.0  0.47295963211324316  0.30867192624079287  0.23921192298274963  1.0000
  C   C5        1.0  0.4166349559170906  0.3413339404223017  0.3408258180491741  1.0000
  C   C6        1.0  0.3391542507098296  0.29098395620269835  0.3251403355747118  1.0000
  C   C7        1.0  0.2764616045949522  0.3821205447607301  0.3538842154202093  1.0000
  C   C8        1.0  0.2034148629558337  0.33439667735349543  0.3390543954535761  1.0000
  C   C9        1.0  0.1396552087504805  0.4285276347297171  0.3682007131014886  1.0000
  N   N2        1.0  0.0884054717787792  0.5042024250002606  0.39163354932097216  1.0000
  C   C10       1.0  0.1924788427811401  0.19524930815278618  0.295452698796576  1.0000
  C   C11       1.0  0.2543142071845947  0.10409723081245925  0.2666995153547913  1.0000
  C   C12       1.0  0.3272440206309443  0.15138037637360968  0.2813047660140511  1.0000
  C   C13       1.0  0.43495060719525813  0.4224660493825272  0.45756367969238254  1.0000
  C   C14       1.0  0.5079104025725417  0.46975114098564497  0.4722361492015805  1.0000
  H   H1        1.0  0.5884124871431698  0.3303435323948489  0.17448181145451414  1.0000
  H   H2        1.0  0.4603965261216671  0.24805313948127283  0.14721484583245759  1.0000
  H   H3        1.0  0.2843438980316912  0.4907440653261552  0.38588051867391804  1.0000
  H   H4        1.0  0.1362287250947941  0.15731049088083826  0.28371245728449557  1.0000
  H   H5        1.0  0.2457286215356635  0.9963706761459734  0.23337055693546804  1.0000
  H   H6        1.0  0.3742997506563825  0.07811335577734968  0.2601995483754451  1.0000
  H   H7        1.0  0.3931235110047087  0.4477092868385919  0.5385758266742193  1.0000
  H   H8        1.0  0.5209943764370153  0.5317137043195701  0.5630765790635246  1.0000
  C   C15       1.0  0.8960683827127619  0.09078608843265035  0.395006201622627  1.0000
  C   C16       1.0  0.9049703449338129  0.1722583972814613  0.2628938877819933  1.0000
  C   C17       1.0  0.9063957004781175  0.10584131197125557  0.13230216536799144  1.0000
  C   C18       1.0  0.8981285797013989  0.9566291029258709  0.1306958706962147  1.0000
  C   C19       1.0  0.891567725550989  0.873413955878094  0.2617036607220784  1.0000
  C   C20       1.0  0.8912901870289591  0.9381736310728206  0.3946025232188666  1.0000
  C   C21       1.0  0.9013235616988412  0.8849777760075601  0.9903315478229988  1.0000
  H   H9        1.0  0.8334906997108512  0.17579712890507793  0.7299481736221825  1.0000
  H   H10       1.0  0.9092297081795448  0.28861487963622423  0.26034731829280133  1.0000
  H   H11       1.0  0.9131548486011359  0.17129724549067316  0.032129549979826644  1.0000
  H   H12       1.0  0.8883908187920717  0.7570582250339057  0.2599152461802159  1.0000
  H   H13       1.0  0.8521479483913242  0.6450561343127347  0.6219430941021746  1.0000
  H   H14       1.0  0.9604244856866252  0.8520589526698421  0.9657617997077672  1.0000
  H   H15       1.0  0.8794223457133952  0.959995695846596  0.9007423458811963  1.0000
  H   H16       1.0  0.8666520661347688  0.7876979245655817  0.9966600872372697  1.0000
  C   C22       1.0  0.8937394953749184  0.5099786954584333  0.9715601508872593  1.0000
  C   C23       1.0  0.9627766823113894  0.5034670872427047  0.04404233791434797  1.0000
  C   C24       1.0  0.03053435727192544  0.5104316568779275  0.9675204250481926  1.0000
  C   C25       1.0  0.030975714621515715  0.5242077232688607  0.8158774226341117  1.0000
  C   C26       1.0  0.9624102978282583  0.5282618855621413  0.7425793491014043  1.0000
  C   C27       1.0  0.8936191097179859  0.5189810653511895  0.8180485299596789  1.0000
  N   N3        1.0  0.09999416668569894  0.5327665041212257  0.7339605939915987  1.0000
  C   C28       1.0  0.1741912884567116  0.5290183846233363  0.799742913437107  1.0000
  H   H17       1.0  0.7755159991007541  0.4469352485235287  0.25936077408763647  1.0000
  H   H18       1.0  0.9643762268075907  0.49642006908784087  0.16106842177163005  1.0000
  H   H19       1.0  0.08231942590780639  0.5063697857337963  0.027800621497586997  1.0000
  H   H20       1.0  0.9629295951378933  0.5353418289148879  0.6254392385928806  1.0000
  H   H21       1.0  0.7191175322150739  0.41613639010914527  0.725456956963761  1.0000
  H   H22       1.0  0.09750192590860696  0.5424575415121717  0.621119830145004  1.0000
  H   H23       1.0  0.17854655495999805  0.6213168403874711  0.869088092538234  1.0000
  H   H24       1.0  0.18393949494891326  0.4253982633501492  0.8651970216059914  1.0000
  H   H25       1.0  0.2181697667118705  0.5376003784018439  0.714131453618378  1.0000
  Zn  Zn1       1.0  0.8113355231161526  0.5188299018583271  0.3961446105701285  1.0000
  Zn  Zn2       1.0  0.9760158728336223  0.5101295118267815  0.39346353462256545  1.0000
  C   C29       1.0  0.8936725841498564  0.5115315559943909  0.6580468740871526  1.0000
  C   C30       1.0  0.8936805998188135  0.5174295846869135  0.13156138242354443  1.0000
  C   C31       1.0  0.892190330814976  0.7779384833686751  0.38893544334077057  1.0000
  C   C32       1.0  0.895162806723529  0.2510209276087998  0.40067289175186893  1.0000
  O   O1        1.0  0.9561562039046448  0.5166221238863615  0.1842418060057498  1.0000
  O   O2        1.0  0.9561855612522481  0.5057345291941959  0.6033311615199068  1.0000
  O   O3        1.0  0.9549877802585117  0.7208615526716728  0.38602179018540794  1.0000
  O   O4        1.0  0.9573539286613048  0.30149511254985595  0.4015510701835463  1.0000
  O   O5        1.0  0.8299974110911412  0.7274643041057585  0.38805707591648564  1.0000
  O   O6        1.0  0.8311951823177137  0.5123390133026169  0.6053663695763802  1.0000
  O   O7        1.0  0.8311658255500792  0.5232265392842481  0.18627528123889947  1.0000
  O   O8        1.0  0.8323635503464866  0.30809951877727726  0.40358465348073613  1.0000
