data_image0
_chemical_formula_structural       NC8NC6H8C6BrH5C7OH6Zn2C4O8
_chemical_formula_sum              "N2 C31 H19 Br1 O9 Zn2"
_cell_length_a       17.457602349358154
_cell_length_b       10.302969083221269
_cell_length_c       9.274081674992354
_cell_angle_alpha    86.07102864227298
_cell_angle_beta     92.53340075860572
_cell_angle_gamma    91.68807063265206

_space_group_name_H-M_alt    "P 1"
_space_group_IT_number       1

loop_
  _space_group_symop_operation_xyz
  'x, y, z'

loop_
  _atom_site_type_symbol
  _atom_site_label
  _atom_site_symmetry_multiplicity
  _atom_site_fract_x
  _atom_site_fract_y
  _atom_site_fract_z
  _atom_site_occupancy
  N   N1        1.0  0.7270868194809631  0.44031403705788796  0.4760215467522315  1.0000
  C   C1        1.0  0.6660449175317124  0.3943106037061568  0.46424273735575405  1.0000
  C   C2        1.0  0.5901061760870202  0.3370881288376246  0.44960048587156054  1.0000
  C   C3        1.0  0.5313233344574148  0.37789389855370814  0.5327041742404104  1.0000
  C   C4        1.0  0.4568205902837712  0.32279438870804933  0.5187436802392773  1.0000
  C   C5        1.0  0.3944318441216365  0.3658813641377774  0.6067536380727807  1.0000
  C   C6        1.0  0.3200744495548684  0.3838546643160501  0.5448805086203214  1.0000
  C   C7        1.0  0.2612912386718675  0.4244775150961655  0.6281039784224502  1.0000
  C   C8        1.0  0.1855032083680385  0.4430370396293579  0.5637726553788069  1.0000
  N   N2        1.0  0.1245825479983557  0.4579525210510522  0.5120504392495173  1.0000
  C   C9        1.0  0.276371533674421  0.44737458861131607  0.7737648099618852  1.0000
  C   C10       1.0  0.34994290867085226  0.4297935486415514  0.8360680038971653  1.0000
  C   C11       1.0  0.4087129610656408  0.38935470853189535  0.7533524047051914  1.0000
  C   C12       1.0  0.4423941970989444  0.22619934104380301  0.4200895832736711  1.0000
  C   C13       1.0  0.501163962916594  0.18567566942968106  0.3374297237534887  1.0000
  C   C14       1.0  0.5748800748263014  0.2408923421335445  0.35200042169051904  1.0000
  H   H1        1.0  0.5434412210314024  0.45364827422360476  0.6066351374370611  1.0000
  H   H2        1.0  0.30807573363221163  0.3679943710431335  0.43167792205883604  1.0000
  H   H3        1.0  0.23131086497379869  0.47876340093665903  0.8390468731448248  1.0000
  H   H4        1.0  0.3614291804739346  0.4472077232451126  0.9488564342031716  1.0000
  H   H5        1.0  0.4650420836379783  0.3747721670679376  0.8045104202608555  1.0000
  H   H6        1.0  0.3859456957629063  0.18078506781182724  0.40827069984384456  1.0000
  H   H7        1.0  0.489563953411541  0.11102688258630078  0.2621691475304284  1.0000
  H   H8        1.0  0.619939052603125  0.2086385970651179  0.28728548394953224  1.0000
  C   C15       1.0  0.9258383229148268  0.06788596430445781  0.49404259795943317  1.0000
  C   C16       1.0  0.0052834461441639835  0.06869277739286828  0.5255349971104162  1.0000
  C   C17       1.0  0.04469250390908708  0.952155147981349  0.54115673526774  1.0000
  C   C18       1.0  0.005283507202703319  0.8336104183051632  0.5255347291464325  1.0000
  C   C19       1.0  0.9258383349995538  0.830370981429954  0.49404250349610335  1.0000
  C   C20       1.0  0.8864994117788955  0.9481267032682801  0.47844844441203893  1.0000
  Br  Br1       1.0  0.15275154584400674  0.954906911006445  0.5839922094933376  1.0000
  H   H9        1.0  0.8959359480591301  0.39488394891268896  0.4821885104072341  1.0000
  H   H10       1.0  0.036909046984994864  0.1594974490422134  0.5380716843218043  1.0000
  H   H11       1.0  0.03690913922365291  0.7444165137778614  0.538071043404676  1.0000
  H   H12       1.0  0.8252282768131545  0.9465663648049819  0.45416048764058004  1.0000
  H   H13       1.0  0.895935721888536  0.5018499637808747  0.48219061981123046  1.0000
  C   C21       1.0  0.9271327560153947  0.44578261033855027  0.0708901540656579  1.0000
  C   C22       1.0  0.9894245606171567  0.5050488418756538  0.14506233414708736  1.0000
  C   C23       1.0  0.047372865999184555  0.5737000539897195  0.0698317906182504  1.0000
  C   C24       1.0  0.043013808985229884  0.5834364257215454  0.9183139842234338  1.0000
  C   C25       1.0  0.9823292474515978  0.5235012626345537  0.8430846569588364  1.0000
  C   C26       1.0  0.9245439074358073  0.4524743417709407  0.9171949150938494  1.0000
  C   C27       1.0  0.11145308140781052  0.635630080152312  0.15108492156068043  1.0000
  O   O1        1.0  0.1642378054316309  0.6984591095376955  0.08652957943839001  1.0000
  H   H14       1.0  0.745404238371452  0.35338300339605055  0.1657871376060287  1.0000
  H   H15       1.0  0.9919588855240468  0.5003421423701631  0.2623313820812878  1.0000
  H   H16       1.0  0.0869296601113676  0.6363747354042719  0.8576866344591925  1.0000
  H   H17       1.0  0.9816178239458433  0.5301775383490528  0.7259464137765868  1.0000
  H   H18       1.0  0.8034033116882847  0.3849839787458178  0.6311304237383375  1.0000
  H   H19       1.0  0.11368911222844469  0.6274757340793939  0.2681947848065811  1.0000
  Zn  Zn1       1.0  0.8417954749319847  0.4454007067187671  0.4864270268750883  1.0000
  Zn  Zn2       1.0  0.009873842208744099  0.45285530024253373  0.5016567565747623  1.0000
  C   C28       1.0  0.9250315393032175  0.44603736204890554  0.7572250731695962  1.0000
  C   C29       1.0  0.9266396128154422  0.45222036553256006  0.2308590180201604  1.0000
  C   C30       1.0  0.9258519510014104  0.6861995175548237  0.4882999986019989  1.0000
  C   C31       1.0  0.9258191435288167  0.21205664828450255  0.49978416421563154  1.0000
  O   O2        1.0  0.9902589738862789  0.4572042504398792  0.2903256331481594  1.0000
  O   O3        1.0  0.9889797711956312  0.4467103584480925  0.7093170556864996  1.0000
  O   O4        1.0  0.9896413995835557  0.6406443099954431  0.49215807737055317  1.0000
  O   O5        1.0  0.9895972884750986  0.2632703047817473  0.5074844982240119  1.0000
  O   O6        1.0  0.8620719713087553  0.6349856996370202  0.4805992800211003  1.0000
  O   O7        1.0  0.8614103431523893  0.4410533072892757  0.6977581815044342  1.0000
  O   O8        1.0  0.8626895511936895  0.4515471403431017  0.2787650265000754  1.0000
  O   O9        1.0  0.8620278654488907  0.2576131862532176  0.49592399961128275  1.0000
