data_image0
_chemical_formula_structural       NC8NC6H8C6SCH8C6SCH8Zn2C4O8
_chemical_formula_sum              "N2 C32 H24 S2 Zn2 O8"
_cell_length_a       17.457602349358154
_cell_length_b       10.302809429070853
_cell_length_c       10.302812801239593
_cell_angle_alpha    85.56069637758505
_cell_angle_beta     92.87590592568559
_cell_angle_gamma    91.68806441137123

_space_group_name_H-M_alt    "P 1"
_space_group_IT_number       1

loop_
  _space_group_symop_operation_xyz
  'x, y, z'

loop_
  _atom_site_type_symbol
  _atom_site_label
  _atom_site_symmetry_multiplicity
  _atom_site_fract_x
  _atom_site_fract_y
  _atom_site_fract_z
  _atom_site_occupancy
  N   N1        1.0  0.7224249480785925  0.4523866818273343  0.6269381479124225  1.0000
  C   C1        1.0  0.6613470182089899  0.4064756726966403  0.6163257695031548  1.0000
  C   C2        1.0  0.5853634904173982  0.349368089932623  0.6031335097174646  1.0000
  C   C3        1.0  0.5268348565663115  0.3895173780873602  0.678007605604128  1.0000
  C   C4        1.0  0.4522894113760009  0.3345274024716003  0.665429590262872  1.0000
  C   C5        1.0  0.3901698809006939  0.3769191370486318  0.7447240975330196  1.0000
  C   C6        1.0  0.3156232181334376  0.3953819560336578  0.6889781418795491  1.0000
  C   C7        1.0  0.2570945814464546  0.4353473752885433  0.7639601574770212  1.0000
  C   C8        1.0  0.18110976340368734  0.4544158650257364  0.7059994382851087  1.0000
  N   N2        1.0  0.12003088620497622  0.4697405530474501  0.6593991710555731  1.0000
  C   C9        1.0  0.2726204447904642  0.45709304083437097  0.895196486214443  1.0000
  C   C10       1.0  0.3463824035100139  0.4390190875481603  0.9513299179274528  1.0000
  C   C11       1.0  0.4048994352499871  0.39923366600298094  0.8768054795250804  1.0000
  C   C12       1.0  0.4375612459639997  0.23871093161337487  0.5765450105124243  1.0000
  C   C13       1.0  0.496078161637308  0.198840236507414  0.502070791990517  1.0000
  C   C14       1.0  0.5698388411420663  0.2539425518196854  0.5151985839845603  1.0000
  H   H1        1.0  0.539178889758144  0.464688343740314  0.7446173339858795  1.0000
  H   H2        1.0  0.30327822170369834  0.3804165273861777  0.586985782644621  1.0000
  H   H3        1.0  0.22775946893253352  0.48796614405974914  0.9540137968896647  1.0000
  H   H4        1.0  0.3582136888367024  0.4555416963949779  0.0529491340188728  1.0000
  H   H5        1.0  0.46138504876660547  0.38424638431758673  0.922897417853646  1.0000
  H   H6        1.0  0.3810765940856305  0.19338940860072018  0.5658965265366889  1.0000
  H   H7        1.0  0.4842479382191416  0.12478539026307645  0.43426311955220975  1.0000
  H   H8        1.0  0.6146998609417113  0.22220001810412038  0.4568922374213553  1.0000
  C   C15       1.0  0.9212316006918267  0.07981034453343239  0.6431746007860022  1.0000
  C   C16       1.0  0.9654902660842041  0.0894061105322086  0.532551692290256  1.0000
  C   C17       1.0  0.987301383144651  0.9771924342777861  0.4773449937208589  1.0000
  C   C18       1.0  0.9654901693460447  0.8542549483893959  0.5325516146202378  1.0000
  C   C19       1.0  0.9212315701121319  0.8423072045678378  0.6431745914739064  1.0000
  C   C20       1.0  0.8992986608404079  0.9557266325413374  0.6979192220490182  1.0000
  S   S1        1.0  0.04398990628768673  0.9909492329444692  0.33617112597236076  1.0000
  C   C21       1.0  0.9608501515592373  0.9956184883311979  0.22224118540529814  1.0000
  H   H9        1.0  0.9045274190679055  0.4035083814001752  0.6848330475823226  1.0000
  H   H10       1.0  0.9830693320932007  0.18378434860967552  0.48861046746146397  1.0000
  H   H11       1.0  0.9830691627895202  0.768433947732269  0.48861035246978757  1.0000
  H   H12       1.0  0.8651474649682411  0.9474184164592635  0.7832332350189417  1.0000
  H   H13       1.0  0.9045261658725733  0.5104925587250695  0.684831517640444  1.0000
  H   H14       1.0  0.9256427029691282  0.9046266638711409  0.2366787794975218  1.0000
  H   H15       1.0  0.9256434214635805  0.08086165689614289  0.23667836621684923  1.0000
  H   H16       1.0  0.9806602245741628  0.00442455659311336  0.12124101710828095  1.0000
  C   C22       1.0  0.9212316059448219  0.4610587762528926  0.2619261140154263  1.0000
  C   C23       1.0  0.8953577911733848  0.5894006077405936  0.24861645557804857  1.0000
  C   C24       1.0  0.8822860045514007  0.6530593285341206  0.12500225644912  1.0000
  C   C25       1.0  0.8953577220075317  0.5894004684358698  0.013465280242029198  1.0000
  C   C26       1.0  0.9212315561808537  0.46105876533161805  0.024423013582176134  1.0000
  C   C27       1.0  0.93401839096954  0.39750265443472377  0.14918110072745305  1.0000
  S   S2        1.0  0.849385948371643  0.8171380011109075  0.10950491828907438  1.0000
  C   C28       1.0  0.7484683456288029  0.7673728713258514  0.10477802502052946  1.0000
  H   H17       1.0  0.930953686933096  0.41267507299241557  0.5942539173723262  1.0000
  H   H18       1.0  0.8850796643250629  0.6403783069043623  0.333896384437522  1.0000
  H   H19       1.0  0.8850795107223304  0.640378113180103  0.9185460589151293  1.0000
  H   H20       1.0  0.9539620987913799  0.2984976970986959  0.15853987549722426  1.0000
  H   H21       1.0  0.9309522584043907  0.4126743366075871  0.7012382152315446  1.0000
  H   H22       1.0  0.7348638417383889  0.7090227340964623  0.020021019213489533  1.0000
  H   H23       1.0  0.7348641703297765  0.709024060519577  0.19625573807347663  1.0000
  H   H24       1.0  0.7129601566038775  0.8554350388957745  0.09494258312624027  1.0000
  Zn  Zn1       1.0  0.8371654330928705  0.4573911525493288  0.6363131940952143  1.0000
  Zn  Zn2       1.0  0.005290386940628444  0.4647254377301253  0.6500347540427218  1.0000
  C   C29       1.0  0.9212298562089046  0.4558865758076751  0.8802946467333637  1.0000
  C   C30       1.0  0.921227799743779  0.4662317326852512  0.4060535786696484  1.0000
  C   C31       1.0  0.9212276232304305  0.6981788837393563  0.6380006951963249  1.0000
  C   C32       1.0  0.9212299753530258  0.223937862420865  0.6483475947413548  1.0000
  O   O1        1.0  0.9850290661428657  0.47074548309717046  0.45963133291824465  1.0000
  O   O2        1.0  0.9850315396337085  0.45693839871839925  0.8371308652617591  1.0000
  O   O3        1.0  0.9850288763864613  0.6525924640571266  0.641476714928215  1.0000
  O   O4        1.0  0.9850316720204602  0.27509142454315927  0.6552853812256374  1.0000
  O   O5        1.0  0.8574240906402433  0.6470251632348762  0.6310625622229746  1.0000
  O   O6        1.0  0.8574267538839225  0.45137265772743573  0.826716643332527  1.0000
  O   O7        1.0  0.8574242804442019  0.4651796968662094  0.44921555008566694  1.0000
  O   O8        1.0  0.8574268863186538  0.2695256290260639  0.6448696957298876  1.0000
