data_image0
_chemical_formula_structural       NC8NC6H8C7F3H5C6NCH9Zn2C4O8
_chemical_formula_sum              "N3 C32 H22 F3 Zn2 O8"
_cell_length_a       17.457602349358154
_cell_length_b       9.27228830945605
_cell_length_c       9.273390368590327
_cell_angle_alpha    85.86907617874284
_cell_angle_beta     92.8511133753594
_cell_angle_gamma    91.12935064675003

_space_group_name_H-M_alt    "P 1"
_space_group_IT_number       1

loop_
  _space_group_symop_operation_xyz
  'x, y, z'

loop_
  _atom_site_type_symbol
  _atom_site_label
  _atom_site_symmetry_multiplicity
  _atom_site_fract_x
  _atom_site_fract_y
  _atom_site_fract_z
  _atom_site_occupancy
  N   N1        1.0  0.7140424850525284  0.5978491727502686  0.46657467601091707  1.0000
  C   C1        1.0  0.6532379597938709  0.5467027779043534  0.45508535485596924  1.0000
  C   C2        1.0  0.5775945120367909  0.4830831236879063  0.4408031921136992  1.0000
  C   C3        1.0  0.5188165497771934  0.5285845573401564  0.523664814420618  1.0000
  C   C4        1.0  0.4445985545933776  0.4673254598138046  0.5100510778537133  1.0000
  C   C5        1.0  0.3822157328282663  0.5153710851047959  0.5978054899100744  1.0000
  C   C6        1.0  0.3075684868577456  0.5352313172776257  0.5358057960870699  1.0000
  C   C7        1.0  0.2487915932475953  0.5805296893206269  0.6187883846348545  1.0000
  C   C8        1.0  0.1727029526169084  0.6010368804236106  0.5543262800124018  1.0000
  N   N2        1.0  0.11154063978390232  0.6175175762421481  0.5024989559828337  1.0000
  C   C9        1.0  0.2641682648354786  0.6062439461623814  0.7643334431256121  1.0000
  C   C10       1.0  0.3380284445877546  0.5868204339181486  0.8267607997929123  1.0000
  C   C11       1.0  0.3967925964373764  0.5417274924088769  0.7442850172360469  1.0000
  C   C12       1.0  0.4304513995319581  0.35979544556810916  0.4119898586955051  1.0000
  C   C13       1.0  0.4892159322151836  0.3146083314243322  0.32957036532170725  1.0000
  C   C14       1.0  0.5626484109826271  0.375998758343679  0.3437936860534381  1.0000
  H   H1        1.0  0.5307052498111565  0.612908317111919  0.5971301186563394  1.0000
  H   H2        1.0  0.2953279864427582  0.5173969645376182  0.422680910556811  1.0000
  H   H3        1.0  0.21911537213222174  0.6412472777939024  0.8294295778300411  1.0000
  H   H4        1.0  0.3497460751303612  0.6063808893015354  0.9394615864233147  1.0000
  H   H5        1.0  0.453359727791385  0.5256157618421515  0.7955459140540551  1.0000
  H   H6        1.0  0.37423666871276273  0.30930372456045485  0.400456717401364  1.0000
  H   H7        1.0  0.47783462254189574  0.2315107906267977  0.25476816425278326  1.0000
  H   H8        1.0  0.6077064140800229  0.340035250637303  0.27927027930680826  1.0000
  C   C15       1.0  0.915051894456799  0.18399419744206447  0.4869622869643948  1.0000
  C   C16       1.0  0.9515103527595078  0.2665973960506225  0.3764229089543931  1.0000
  C   C17       1.0  0.9803949583398986  0.20114647790963658  0.2601741603748675  1.0000
  C   C18       1.0  0.9725409202410457  0.051455203845978126  0.2502519573705604  1.0000
  C   C19       1.0  0.938880054072468  0.9673274863773642  0.3628786813335607  1.0000
  C   C20       1.0  0.9105386370748083  0.03136193202481574  0.48212456025250305  1.0000
  C   C21       1.0  0.005711280810450248  0.9802090912611258  0.12665547210268535  1.0000
  F   F1        1.0  0.005064411429654081  0.07346422184882617  0.0031350563945395926  1.0000
  F   F2        1.0  0.9634793572245385  0.8574742080513422  0.09536565497757343  1.0000
  F   F3        1.0  0.08050049571798867  0.9416842496387776  0.16462496150503125  1.0000
  H   H9        1.0  0.7860651530462691  0.26294511439002677  0.7345411298378515  1.0000
  H   H10       1.0  0.956348156369628  0.3831168994042897  0.3783514373508978  1.0000
  H   H11       1.0  0.008353769180799109  0.26809776494985593  0.177177918055496  1.0000
  H   H12       1.0  0.9364297112880489  0.8507329685529893  0.35941649018354194  1.0000
  H   H13       1.0  0.8747690104162216  0.9036161869968684  0.8279290870940497  1.0000
  C   C22       1.0  0.9128547701277323  0.6031805864944892  0.06132653829872492  1.0000
  C   C23       1.0  0.9833156759147617  0.6037995122824271  0.14131198595302386  1.0000
  C   C24       1.0  0.05247641413510751  0.6177699304312116  0.07209253880158895  1.0000
  C   C25       1.0  0.05293280284899615  0.6315993105208688  0.9204336366142143  1.0000
  C   C26       1.0  0.982952360832259  0.6285703162745466  0.8396947296517658  1.0000
  C   C27       1.0  0.9127357600600714  0.6121755507772302  0.9077602749030049  1.0000
  N   N3        1.0  0.12338105367979701  0.6472951178778934  0.8459483819534279  1.0000
  C   C28       1.0  0.19910969973878911  0.6512122961067406  0.919779743083486  1.0000
  H   H14       1.0  0.7921613723120349  0.5278848823307472  0.3366210619859362  1.0000
  H   H15       1.0  0.9849452477164331  0.5969138468729256  0.2585437907408228  1.0000
  H   H16       1.0  0.10532977290405388  0.6190571612296982  0.13799715907432497  1.0000
  H   H17       1.0  0.983485426523932  0.6357078825076325  0.7225781071847122  1.0000
  H   H18       1.0  0.7345843292941264  0.4912406850733524  0.7967545621225152  1.0000
  H   H19       1.0  0.12084147444990645  0.6567340316735206  0.7327930430304428  1.0000
  H   H20       1.0  0.2035945662600973  0.7440124375347041  0.9891697490597076  1.0000
  H   H21       1.0  0.20901486743716657  0.5485415841524885  0.9867680334663298  1.0000
  H   H22       1.0  0.24400058656603107  0.6643437445780818  0.838889213747366  1.0000
  Zn  Zn1       1.0  0.8287518855455186  0.6035212683884694  0.4769499905756731  1.0000
  Zn  Zn2       1.0  0.9968312863879094  0.6118337765850177  0.4921355081983465  1.0000
  C   C29       1.0  0.912787142684702  0.6047274010274564  0.7477988408077727  1.0000
  C   C30       1.0  0.9127978549544886  0.6106295566786777  0.22128695485181793  1.0000
  C   C31       1.0  0.9113885826468268  0.8711301504479914  0.47729556762182335  1.0000
  C   C32       1.0  0.9141963668605597  0.3442250717889206  0.4917903095887881  1.0000
  O   O1        1.0  0.9765640438947473  0.6162777581908303  0.2807339926373904  1.0000
  O   O2        1.0  0.9765893357468529  0.6053871080471307  0.699876850874434  1.0000
  O   O3        1.0  0.9754591207625612  0.8205106707269079  0.4814434576695843  1.0000
  O   O4        1.0  0.9776942014851481  0.40115420184737904  0.4991672725418479  1.0000
  O   O5        1.0  0.8478889130910223  0.8142008402909473  0.46991822104251013  1.0000
  O   O6        1.0  0.8490191188498601  0.5990790102452301  0.6883515275066774  1.0000
  O   O7        1.0  0.8489938275602221  0.6099695916999002  0.2692069368266865  1.0000
  O   O8        1.0  0.8501239851872561  0.39484602618496223  0.4876403248418748  1.0000
