data_image0
_chemical_formula_structural       NC8NC6H8C6ClH5C8H10Zn2C4O8
_chemical_formula_sum              "N2 C32 H23 Cl1 Zn2 O8"
_cell_length_a       17.457602349358154
_cell_length_b       10.30297070629231
_cell_length_c       9.275657083861812
_cell_angle_alpha    85.85420563620814
_cell_angle_beta     92.37146316173272
_cell_angle_gamma    91.68807172504815

_space_group_name_H-M_alt    "P 1"
_space_group_IT_number       1

loop_
  _space_group_symop_operation_xyz
  'x, y, z'

loop_
  _atom_site_type_symbol
  _atom_site_label
  _atom_site_symmetry_multiplicity
  _atom_site_fract_x
  _atom_site_fract_y
  _atom_site_fract_z
  _atom_site_occupancy
  N   N1        1.0  0.7294603376966126  0.44562539217762964  0.4760563588698903  1.0000
  C   C1        1.0  0.6684367798123264  0.3996630197495836  0.46427780977319744  1.0000
  C   C2        1.0  0.5925208418953389  0.3424915877683574  0.44963588186251147  1.0000
  C   C3        1.0  0.5336085722623074  0.3830077053986365  0.5327376902041756  1.0000
  C   C4        1.0  0.4591275698540926  0.32795686192405915  0.5187775046276257  1.0000
  C   C5        1.0  0.3966017545257  0.37073708483069523  0.6067854714214238  1.0000
  C   C6        1.0  0.3223407235965333  0.38892603140326054  0.5449137491201377  1.0000
  C   C7        1.0  0.2634278981556643  0.4292588126480945  0.6281353361482316  1.0000
  C   C8        1.0  0.1877400599746629  0.44804255113808167  0.5638054761416824  1.0000
  N   N2        1.0  0.1268999538106185  0.4631382999979663  0.5120844362894346  1.0000
  C   C9        1.0  0.278281336211215  0.45164820364648306  0.7737928649934898  1.0000
  C   C10       1.0  0.35175567777823596  0.4338500182925846  0.836094642076163  1.0000
  C   C11       1.0  0.4106545537580862  0.39369947758166846  0.7533809141588108  1.0000
  C   C12       1.0  0.4448548226167958  0.23170567423751032  0.4201256320958422  1.0000
  C   C13       1.0  0.5037533252073647  0.19147010776412055  0.33746764257209416  1.0000
  C   C14       1.0  0.5774467450003665  0.24663598730425207  0.35203801825211656  1.0000
  H   H1        1.0  0.5456113172614407  0.4585043932934405  0.6066669869358206  1.0000
  H   H2        1.0  0.3105183131156538  0.37346029119201485  0.4317137295956204  1.0000
  H   H3        1.0  0.2331189953939451  0.48280948002361246  0.8390734512197979  1.0000
  H   H4        1.0  0.3630662891834573  0.4508710830540006  0.9488805149840207  1.0000
  H   H5        1.0  0.46690400083532274  0.3789386350593671  0.8045377662947049  1.0000
  H   H6        1.0  0.3884247277669429  0.18633260150290587  0.40830700996575664  1.0000
  H   H7        1.0  0.4922705280790222  0.1170836426756181  0.2622087631631205  1.0000
  H   H8        1.0  0.6226065116203165  0.21460780169874139  0.2873245444625121  1.0000
  C   C15       1.0  0.9281837691299045  0.07313457190718631  0.4940769439182202  1.0000
  C   C16       1.0  0.007244291918322432  0.07360366163394572  0.5290096375533253  1.0000
  C   C17       1.0  0.046472013632287146  0.956879567080676  0.5463422070433526  1.0000
  C   C18       1.0  0.0072442916189316975  0.8384956926373037  0.5290095697301587  1.0000
  C   C19       1.0  0.9281837769334152  0.8356195144453697  0.494077027146155  1.0000
  C   C20       1.0  0.8890389000352875  0.9535489255823221  0.4767809298017347  1.0000
  Cl  Cl1       1.0  0.14523744369863612  0.9589690884150671  0.5899813649584451  1.0000
  H   H9        1.0  0.8984030586152708  0.4002609887789983  0.48091760332219  1.0000
  H   H10       1.0  0.03868858379893947  0.16431549398022716  0.5429030950679989  1.0000
  H   H11       1.0  0.03868855394919346  0.7491142993578237  0.5429029887924637  1.0000
  H   H12       1.0  0.8280650257979585  0.9522588219851675  0.4498397399496159  1.0000
  H   H13       1.0  0.8984030536194192  0.5072330231413907  0.4809178750354868  1.0000
  C   C21       1.0  0.9301372401231272  0.4525059884625764  0.07093416268389174  1.0000
  C   C22       1.0  0.9698630388099596  0.5532230819760187  0.13947570642590779  1.0000
  C   C23       1.0  0.0028172189005772896  0.6591984046198753  0.05872443381326087  1.0000
  C   C24       1.0  0.9971837883785173  0.6636210608844042  0.9075748744742191  1.0000
  C   C25       1.0  0.9591143714820223  0.5635582240840717  0.8377308786417577  1.0000
  C   C26       1.0  0.9262303187993484  0.4562480480044784  0.9172197851608765  1.0000
  C   C27       1.0  0.04608859516832586  0.765214839085627  0.13384690388755427  1.0000
  C   C28       1.0  0.13032487888605582  0.7318802857959619  0.15932757248506468  1.0000
  H   H14       1.0  0.8957135719098587  0.24387551963297227  0.3656406900677831  1.0000
  H   H15       1.0  0.9738281984470281  0.5509908505215977  0.25656017573111267  1.0000
  H   H16       1.0  0.023037927355541  0.7441100042847968  0.8435323338631529  1.0000
  H   H17       1.0  0.9571408792192333  0.568530699357584  0.7205776605168936  1.0000
  H   H18       1.0  0.8356826462798536  0.30263149739230877  0.641177200982924  1.0000
  H   H19       1.0  0.041888687052344276  0.8592802696796635  0.06762587388479746  1.0000
  H   H20       1.0  0.02058148794284187  0.7787944595920575  0.23941116855047162  1.0000
  H   H21       1.0  0.13578430467523916  0.639763645524466  0.22857065497577178  1.0000
  H   H22       1.0  0.1573127896235491  0.7211208914814085  0.05459922507093595  1.0000
  H   H23       1.0  0.16116524616013495  0.8111729285941325  0.21468987528977634  1.0000
  Zn  Zn1       1.0  0.8441527873621791  0.45067579427004656  0.4864616035895468  1.0000
  Zn  Zn2       1.0  0.01220743543255054  0.45807730564145643  0.5016909887484842  1.0000
  C   C29       1.0  0.9269671013857492  0.450368624046773  0.7572535034146353  1.0000
  C   C30       1.0  0.9293949559076516  0.4583861954120274  0.2308993966565802  1.0000
  C   C31       1.0  0.9282063498813483  0.6914680369837822  0.4883345697339576  1.0000
  C   C32       1.0  0.9281556497120415  0.21728522048349141  0.4998184019632659  1.0000
  O   O1        1.0  0.9929217016624542  0.46316281763596967  0.29036466277724005  1.0000
  O   O2        1.0  0.9909899469113913  0.45120859644984024  0.7093465734496962  1.0000
  O   O3        1.0  0.9919897890979248  0.6458993902753836  0.4921925539453551  1.0000
  O   O4        1.0  0.9919218026290288  0.26847203009432397  0.5075185690440582  1.0000
  O   O5        1.0  0.8644383628169321  0.6402810672927861  0.4806340180893518  1.0000
  O   O6        1.0  0.8634385209816412  0.44559183293437665  0.6977879607630635  1.0000
  O   O7        1.0  0.8653702837815592  0.45754600122080213  0.27880431766390257  1.0000
  O   O8        1.0  0.8643703842462573  0.2628552048708659  0.49595833196362227  1.0000
