data_image0
_chemical_formula_structural       NC8NC6H8C7NH5C6ClH5Zn2C4O8
_chemical_formula_sum              "N3 C31 H18 Cl1 Zn2 O8"
_cell_length_a       17.457602349358154
_cell_length_b       10.302819778424748
_cell_length_c       10.302974078461048
_cell_angle_alpha    85.56070265291797
_cell_angle_beta     92.87591007631781
_cell_angle_gamma    91.68806980205999

_space_group_name_H-M_alt    "P 1"
_space_group_IT_number       1

loop_
  _space_group_symop_operation_xyz
  'x, y, z'

loop_
  _atom_site_type_symbol
  _atom_site_label
  _atom_site_symmetry_multiplicity
  _atom_site_fract_x
  _atom_site_fract_y
  _atom_site_fract_z
  _atom_site_occupancy
  N   N1        1.0  0.7224249763554604  0.4523852463732314  0.6269598398979119  1.0000
  C   C1        1.0  0.6613470433006998  0.40647428400134644  0.6163476210226495  1.0000
  C   C2        1.0  0.5853635115475168  0.3493667593992589  0.6031555595488107  1.0000
  C   C3        1.0  0.5268348832642783  0.3895160049838129  0.6780284895230195  1.0000
  C   C4        1.0  0.45228943426458107  0.33452608537007733  0.6654506631830541  1.0000
  C   C5        1.0  0.3901699096782184  0.37691777499315937  0.7447439356895127  1.0000
  C   C6        1.0  0.3156232456461269  0.3953805767110503  0.6889988549666295  1.0000
  C   C7        1.0  0.2570946145206169  0.4353459535791655  0.763979702936793  1.0000
  C   C8        1.0  0.1811097951551468  0.4544144254926614  0.7060198934179185  1.0000
  N   N2        1.0  0.1200309168926092  0.4697390991905763  0.6594203575622359  1.0000
  C   C9        1.0  0.2726204847269785  0.4570915937462263  0.8952139811961606  1.0000
  C   C10       1.0  0.346382444750965  0.4390176573234843  0.9513465319706909  1.0000
  C   C11       1.0  0.4048994709595981  0.3992322779711026  0.876823254061107  1.0000
  C   C12       1.0  0.4375612593742384  0.2387097138064418  0.5765674606651612  1.0000
  C   C13       1.0  0.49607816951325684  0.1988390609783366  0.5020944018380844  1.0000
  C   C14       1.0  0.5698388528574149  0.25394132016075766  0.5152219962439726  1.0000
  H   H1        1.0  0.539178923759688  0.46468689281707176  0.7446371862911318  1.0000
  H   H2        1.0  0.3032782439984483  0.38041516582824664  0.5870080895677297  1.0000
  H   H3        1.0  0.2277595132031848  0.4879646642051265  0.9540303758946977  1.0000
  H   H4        1.0  0.3582137353725283  0.45554024683846017  0.052964160286364304  1.0000
  H   H5        1.0  0.4613850855385798  0.38424501028088254  0.9229144690180555  1.0000
  H   H6        1.0  0.3810766043442962  0.19338823695663776  0.5659191368722143  1.0000
  H   H7        1.0  0.4842479388071866  0.12478429145424275  0.43428777991737455  1.0000
  H   H8        1.0  0.6146998682928044  0.22219882007892688  0.4569165575383429  1.0000
  C   C15       1.0  0.9212316074624782  0.07980928591489445  0.6431959857363811  1.0000
  C   C16       1.0  0.8764497323669416  0.06795574799059811  0.7532266600560664  1.0000
  C   C17       1.0  0.8541703082477746  0.944955920043918  0.8079679597115208  1.0000
  C   C18       1.0  0.876449794287224  0.832654740882492  0.7532266693658269  1.0000
  C   C19       1.0  0.9212316201085575  0.8423053136491204  0.6431960253557705  1.0000
  C   C20       1.0  0.9433885965848872  0.9663772065649848  0.588755593992333  1.0000
  C   C21       1.0  0.8082623955895188  0.9339334179162153  0.920765576843023  1.0000
  N   N3        1.0  0.7713674559341367  0.9250749632651344  0.011417858167543038  1.0000
  H   H9        1.0  0.9381938891355227  0.41162154820692964  0.6015184880933382  1.0000
  H   H10       1.0  0.8587882600502833  0.1541395169496267  0.7966213222409635  1.0000
  H   H11       1.0  0.8587883558033925  0.7379899170044972  0.7966212992161104  1.0000
  H   H12       1.0  0.9779227962326852  0.9746687919986079  0.5039039021232206  1.0000
  H   H13       1.0  0.9381939595182819  0.5186384706919056  0.6015185925114857  1.0000
  C   C22       1.0  0.9212316192548128  0.46105734136384324  0.26195351889640883  1.0000
  C   C23       1.0  0.9078861558002101  0.32563037649488447  0.2700976561979713  1.0000
  C   C24       1.0  0.9012645401773354  0.25843520689324473  0.157181767015812  1.0000
  C   C25       1.0  0.9078861901135824  0.3256304513143471  0.03498976002821097  1.0000
  C   C26       1.0  0.9212316172978507  0.4610572742619241  0.02443853781005778  1.0000
  C   C27       1.0  0.9278393096291512  0.5281106358389029  0.13856777285990285  1.0000
  Cl  Cl1       1.0  0.8845928883935802  0.08925475511690917  0.16885927223131358  1.0000
  H   H14       1.0  0.9262590673778021  0.5120703608710295  0.5861887381470983  1.0000
  H   H15       1.0  0.9025783637760126  0.27176791052661775  0.36386200035249905  1.0000
  H   H16       1.0  0.9025784173880694  0.2717678943409845  0.9486610386554757  1.0000
  H   H17       1.0  0.9381316971876812  0.6325559744393143  0.13135844188970713  1.0000
  H   H18       1.0  0.9262589213884358  0.5120703430102167  0.6931610957471595  1.0000
  Zn  Zn1       1.0  0.8371654620655438  0.4573897117879171  0.63633474009264  1.0000
  Zn  Zn2       1.0  0.0052904169322729455  0.46472398919106617  0.6500560863696108  1.0000
  C   C28       1.0  0.921229895441425  0.45588513032268807  0.8803123747256756  1.0000
  C   C29       1.0  0.9212278194756905  0.466230288868021  0.4060787289975567  1.0000
  C   C30       1.0  0.9212276666187862  0.6981771991256873  0.6380222490207053  1.0000
  C   C31       1.0  0.9212299909290117  0.22393665773389682  0.6483689192359627  1.0000
  O   O1        1.0  0.9850290884163889  0.47074403333771975  0.45965564550988525  1.0000
  O   O2        1.0  0.9850315770979184  0.4569369532735801  0.8371492688250539  1.0000
  O   O3        1.0  0.9850289172066125  0.6525908255128778  0.6414982078792586  1.0000
  O   O4        1.0  0.9850316909380384  0.2750901678831337  0.6553066044311266  1.0000
  O   O5        1.0  0.8574241306869828  0.6470235305944343  0.6310842173418727  1.0000
  O   O6        1.0  0.8574267905748104  0.4513712181848455  0.8267352090649818  1.0000
  O   O7        1.0  0.8574243019443346  0.4651782530090731  0.4492400248708859  1.0000
  O   O8        1.0  0.8574269044628446  0.26952437826835984  0.6448910811274307  1.0000
