data_image0
_chemical_formula_structural       NC8NC6H8C6NH7C6BrH5Zn2C4O8
_chemical_formula_sum              "N3 C30 H20 Br1 Zn2 O8"
_cell_length_a       17.457602349358154
_cell_length_b       9.274771166103582
_cell_length_c       10.302972455390005
_cell_angle_alpha    85.45577943417274
_cell_angle_beta     92.87591776842113
_cell_angle_gamma    92.29117059398062

_space_group_name_H-M_alt    "P 1"
_space_group_IT_number       1

loop_
  _space_group_symop_operation_xyz
  'x, y, z'

loop_
  _atom_site_type_symbol
  _atom_site_label
  _atom_site_symmetry_multiplicity
  _atom_site_fract_x
  _atom_site_fract_y
  _atom_site_fract_z
  _atom_site_occupancy
  N   N1        1.0  0.731400283893297  0.6141282143580258  0.6250171939539209  1.0000
  C   C1        1.0  0.6700386304157329  0.5631044336751017  0.6144663749826054  1.0000
  C   C2        1.0  0.5937021857598838  0.49963719927022177  0.6013506873507388  1.0000
  C   C3        1.0  0.5354216769687631  0.5442576220945772  0.6761699333560816  1.0000
  C   C4        1.0  0.4605364014452332  0.48314381718444066  0.6636656488583079  1.0000
  C   C5        1.0  0.3986788545155145  0.5302564114183348  0.742902239038719  1.0000
  C   C6        1.0  0.3242462819909619  0.5507752955017977  0.6871324572259117  1.0000
  C   C7        1.0  0.2659646340984206  0.595191373307024  0.7620598671513878  1.0000
  C   C8        1.0  0.1900976489687011  0.6163833771114204  0.704074546164867  1.0000
  N   N2        1.0  0.1291134700188209  0.6334146602026887  0.6574545076188207  1.0000
  C   C9        1.0  0.2816248981592455  0.6193587007225143  0.8932650834599856  1.0000
  C   C10       1.0  0.3552751698083231  0.5992719874682646  0.9494218153151486  1.0000
  C   C11       1.0  0.4135463251657432  0.5550559524173169  0.8749517347930378  1.0000
  C   C12       1.0  0.4452160954378775  0.3766569667171735  0.5749105776241992  1.0000
  C   C13       1.0  0.5034866077585824  0.33234616181976784  0.5004908302377911  1.0000
  C   C14       1.0  0.5775878119046857  0.3935848169014313  0.5135447326450095  1.0000
  H   H1        1.0  0.5482302622683111  0.6277998282595694  0.7426781066999046  1.0000
  H   H2        1.0  0.3118087891687363  0.5341432716487478  0.5851616904936268  1.0000
  H   H3        1.0  0.2369547201232917  0.6536699173314313  0.952040197655579  1.0000
  H   H4        1.0  0.3672085745927795  0.6176346031906801  0.051017362325416205  1.0000
  H   H5        1.0  0.46993932548521294  0.538399650093073  0.9210630011110712  1.0000
  H   H6        1.0  0.38845136287198123  0.32628831887787246  0.5643228653481476  1.0000
  H   H7        1.0  0.4911987295150009  0.25004436899588356  0.43278323884851  1.0000
  H   H8        1.0  0.6222526610113699  0.35830734775994877  0.4552817373034663  1.0000
  C   C15       1.0  0.9279044795203514  0.20006079518907405  0.6417516275996173  1.0000
  C   C16       1.0  0.9102451993400147  0.2825131850919873  0.524213250881006  1.0000
  C   C17       1.0  0.8997510361991944  0.21695489786388578  0.40652266588643626  1.0000
  C   C18       1.0  0.9069563856645544  0.06756869869506521  0.4055274944061109  1.0000
  C   C19       1.0  0.923196574599597  0.9837280642416127  0.5213552823022218  1.0000
  C   C20       1.0  0.9326165576568719  0.04747133803638248  0.6407319410330288  1.0000
  N   N3        1.0  0.882563254783972  0.3025296502123518  0.2877467590793812  1.0000
  H   H9        1.0  0.014271182255974901  0.28390932813064174  0.9329234107166486  1.0000
  H   H10       1.0  0.9063757688450867  0.3989182517656582  0.5233989637243053  1.0000
  H   H11       1.0  0.899245402724436  0.015707541202647723  0.31500608689176857  1.0000
  H   H12       1.0  0.9265786015591443  0.8677280543402001  0.5179129656207921  1.0000
  H   H13       1.0  0.9876775826746204  0.7530751238832614  0.838530166380028  1.0000
  H   H14       1.0  0.8772758201460983  0.4143471463769892  0.28727335101285334  1.0000
  H   H15       1.0  0.8749245179146421  0.25468920399256323  0.19936629782802218  1.0000
  C   C21       1.0  0.9302604888737409  0.6237660359129837  0.25999921700872664  1.0000
  C   C22       1.0  0.951823105751122  0.4788633437037999  0.270950791455707  1.0000
  C   C23       1.0  0.9625193698727658  0.40698378687643677  0.1594455318796224  1.0000
  C   C24       1.0  0.95182323478205  0.4788632936595605  0.0358684114713963  1.0000
  C   C25       1.0  0.9302605252046411  0.6237660416223463  0.02248430203981222  1.0000
  C   C26       1.0  0.9195833036228879  0.695517615457304  0.13521660622447484  1.0000
  Br  Br1       1.0  0.991848085628343  0.20989107136940532  0.1759959399423643  1.0000
  H   H16       1.0  0.9221448328285095  0.6783063179089233  0.5831787168798874  1.0000
  H   H17       1.0  0.9604066744866  0.4211802279956105  0.36579387661474483  1.0000
  H   H18       1.0  0.9604069779944396  0.42118029103732546  0.9507129986592866  1.0000
  H   H19       1.0  0.9029533470858032  0.807272126263261  0.12583227213662407  1.0000
  H   H20       1.0  0.9221437512727256  0.6783057238289978  0.6901450055796796  1.0000
  Zn  Zn1       1.0  0.846171696848369  0.6196899966456857  0.6343854026332081  1.0000
  Zn  Zn2       1.0  0.014341977033183628  0.6278410479100978  0.6480969421794491  1.0000
  C   C27       1.0  0.9302268519912558  0.6180178797480265  0.8783650881595244  1.0000
  C   C28       1.0  0.9302886684277848  0.6295150743660243  0.40411753161621244  1.0000
  C   C29       1.0  0.9317219148005467  0.887292484222342  0.6357508812567241  1.0000
  C   C30       1.0  0.9287935385943216  0.36023873357352043  0.6467318051419295  1.0000
  O   O1        1.0  0.9941178356444413  0.634531490877974  0.45768841990976594  1.0000
  O   O2        1.0  0.9940350301868033  0.6191868340460478  0.8352005687057957  1.0000
  O   O3        1.0  0.9952414519923526  0.8366294409023483  0.6392878081445692  1.0000
  O   O4        1.0  0.9929113565111553  0.4170888915619477  0.653601078437348  1.0000
  O   O5        1.0  0.8676022599821427  0.8304421502138524  0.6288812616894031  1.0000
  O   O6        1.0  0.8663958478125112  0.6130012768957571  0.8247939509418065  1.0000
  O   O7        1.0  0.8664786530415041  0.6283458834495546  0.4472802413271062  1.0000
  O   O8        1.0  0.8652721738477003  0.4109032738132705  0.6431929972024268  1.0000
