data_image0
_chemical_formula_structural       NC9NC5H8C7NH5C6BrH5Zn2C4O8
_chemical_formula_sum              "N3 C31 H18 Br1 Zn2 O8"
_cell_length_a       17.807436237873137
_cell_length_b       10.302819778424748
_cell_length_c       10.302972455390005
_cell_angle_alpha    85.56070675393316
_cell_angle_beta     89.39215201277248
_cell_angle_gamma    88.39001009685678

_space_group_name_H-M_alt    "P 1"
_space_group_IT_number       1

loop_
  _space_group_symop_operation_xyz
  'x, y, z'

loop_
  _atom_site_type_symbol
  _atom_site_label
  _atom_site_symmetry_multiplicity
  _atom_site_fract_x
  _atom_site_fract_y
  _atom_site_fract_z
  _atom_site_occupancy
  N   N1        1.0  0.7074118034992097  0.38734061104931694  0.557606458474758  1.0000
  C   C1        1.0  0.6468242861519482  0.35216170548801173  0.54658615955455  1.0000
  C   C2        1.0  0.5714600737032106  0.3084030210735942  0.5328781042691679  1.0000
  C   C3        1.0  0.5533687310591625  0.23701044696616314  0.427909870373804  1.0000
  C   C4        1.0  0.4801939695973934  0.1944126747689443  0.41451763098760774  1.0000
  C   C5        1.0  0.424061832363463  0.22283006256870497  0.5060611843524521  1.0000
  C   C6        1.0  0.3462959239973051  0.17767448260330143  0.49191074943553037  1.0000
  C   C7        1.0  0.2841195422507339  0.25940550765857995  0.5178411465964701  1.0000
  C   C8        1.0  0.2108024759571457  0.21660475931315726  0.5044625837062628  1.0000
  C   C9        1.0  0.1475760037996237  0.30102631185467366  0.530756765141601  1.0000
  N   N2        1.0  0.0967549084793159  0.3688953994710593  0.551896560764706  1.0000
  C   C10       1.0  0.1990782466178906  0.09181508493482449  0.46512828212854607  1.0000
  C   C11       1.0  0.2603972585494745  0.010070211868024925  0.4391894980305031  1.0000
  C   C12       1.0  0.3335948930345385  0.05247654099974697  0.4523655891498912  1.0000
  C   C13       1.0  0.442844579276611  0.29471685062827024  0.6112485758172321  1.0000
  C   C14       1.0  0.5160722121997491  0.3371242875906344  0.6244852156926366  1.0000
  H   H1        1.0  0.5957636967927584  0.21453254717721038  0.35622076282644444  1.0000
  H   H2        1.0  0.467281474628522  0.14074733021994446  0.33162450483450034  1.0000
  H   H3        1.0  0.2926169725520296  0.35684041613420026  0.546708695730131  1.0000
  H   H4        1.0  0.1426132342487526  0.05778950792270687  0.454536881665051  1.0000
  H   H5        1.0  0.2512014841055573  0.9134551597263247  0.4091219339940515  1.0000
  H   H6        1.0  0.3802357498846827  0.9867517271163125  0.43332344813388546  1.0000
  H   H7        1.0  0.4011664932334829  0.3166558577453096  0.6842317544390308  1.0000
  H   H8        1.0  0.5295130570624641  0.39200985121476095  0.7063370592275842  1.0000
  C   C15       1.0  0.9020869386288104  0.9968648189569367  0.554757066535472  1.0000
  C   C16       1.0  0.858235706121983  0.9890432871995827  0.6690868408046711  1.0000
  C   C17       1.0  0.8364192858608014  0.8680494220504107  0.7259669850462722  1.0000
  C   C18       1.0  0.8582357667554705  0.7537422745163984  0.669086844170053  1.0000
  C   C19       1.0  0.9020869510120885  0.7593608455525577  0.5547571049408371  1.0000
  C   C20       1.0  0.9237834682981383  0.8814378004359565  0.49818958407417613  1.0000
  C   C21       1.0  0.7914654167433343  0.8611603106428454  0.8431718027376411  1.0000
  N   N3        1.0  0.7553372159098128  0.8556237495905121  0.9373660311751837  1.0000
  H   H9        1.0  0.9186967155955444  0.32714985568802857  0.5114511747233046  1.0000
  H   H10       1.0  0.8409412688676436  0.07681723444269406  0.7141770200839614  1.0000
  H   H11       1.0  0.8409413626308591  0.6606676258762982  0.7141769878667561  1.0000
  H   H12       1.0  0.9575999892669982  0.8866200451898278  0.41002257823830557  1.0000
  H   H13       1.0  0.9186967845156533  0.43416677183600205  0.5114512723846865  1.0000
  C   C22       1.0  0.9020869201345675  0.3781128473984776  0.17351454106376396  1.0000
  C   C23       1.0  0.9239904260176175  0.2457161054846675  0.1821443672373999  1.0000
  C   C24       1.0  0.9348557886083377  0.18004017123996818  0.06948739113912183  1.0000
  C   C25       1.0  0.923990552639581  0.24571604881255626  0.9470619747791162  1.0000
  C   C26       1.0  0.9020869556793703  0.37811284926749145  0.9359996226169827  1.0000
  C   C27       1.0  0.8912409367610679  0.44367184640784685  0.04988159289727201  1.0000
  Br  Br1       1.0  0.964648175915068  0.9999577258859383  0.0828798365711032  1.0000
  H   H14       1.0  0.89384294875018  0.42794595233136556  0.4975678958458898  1.0000
  H   H15       1.0  0.932709698837186  0.19301139059884087  0.2760632178740041  1.0000
  H   H16       1.0  0.9327099956944211  0.1930114200282953  0.8609823108911505  1.0000
  H   H17       1.0  0.8743480743833725  0.5457812925406724  0.042287883902235146  1.0000
  H   H18       1.0  0.8938418929054859  0.42794551486294075  0.6045342873435615  1.0000
  Zn  Zn1       1.0  0.8197678121299748  0.3820142571934144  0.5559662136396861  1.0000
  Zn  Zn2       1.0  0.9843988816518849  0.3742111703700224  0.5535474786734027  1.0000
  C   C28       1.0  0.9020852808706274  0.3729408336460249  0.7918736556419945  1.0000
  C   C29       1.0  0.902083210677421  0.3832861468295976  0.31764013768290855  1.0000
  C   C30       1.0  0.902083079274022  0.6152330866349944  0.5495837073625327  1.0000
  C   C31       1.0  0.9020853560969339  0.14099233667483424  0.5599301560033001  1.0000
  O   O1        1.0  0.9645585986511791  0.38205545857426415  0.36509210719714  1.0000
  O   O2        1.0  0.9645610653603183  0.3682481801287454  0.7425855485318429  1.0000
  O   O3        1.0  0.9645584453284038  0.5639022785399306  0.5469347134285594  1.0000
  O   O4        1.0  0.9645611625056556  0.18640137211314078  0.5607428457833712  1.0000
  O   O5        1.0  0.8396054750956998  0.5698240581145202  0.5487708473482844  1.0000
  O   O6        1.0  0.8396080951242029  0.37417151953335215  0.7444216132292047  1.0000
  O   O7        1.0  0.8396056284649335  0.3879787527342562  0.36692661101043855  1.0000
  O   O8        1.0  0.8396081923163436  0.19232465698729473  0.5625774469322891  1.0000
