data_image0
_chemical_formula_structural       NC8NC6H8C7H8C7NH5Zn2C4O8
_chemical_formula_sum              "N3 C32 H21 Zn2 O8"
_cell_length_a       17.457602349358154
_cell_length_b       9.274341958901593
_cell_length_c       10.302823150593486
_cell_angle_alpha    85.52847871026538
_cell_angle_beta     92.87590926728866
_cell_angle_gamma    91.07026823974832

_space_group_name_H-M_alt    "P 1"
_space_group_IT_number       1

loop_
  _space_group_symop_operation_xyz
  'x, y, z'

loop_
  _atom_site_type_symbol
  _atom_site_label
  _atom_site_symmetry_multiplicity
  _atom_site_fract_x
  _atom_site_fract_y
  _atom_site_fract_z
  _atom_site_occupancy
  N   N1        1.0  0.7131356903361912  0.6131633024460743  0.6253555583366162  1.0000
  C   C1        1.0  0.6523513988723557  0.5621700277608008  0.6147932607469602  1.0000
  C   C2        1.0  0.5767331207211114  0.49874073902053917  0.6016632952612173  1.0000
  C   C3        1.0  0.5179477016231369  0.5433344789043928  0.6764935297744028  1.0000
  C   C4        1.0  0.4437539622499679  0.48225721258486365  0.6639754986721782  1.0000
  C   C5        1.0  0.3813633043848195  0.5293416335442696  0.743223694553985  1.0000
  C   C6        1.0  0.306698554753161  0.5498482547507226  0.6874576592164949  1.0000
  C   C7        1.0  0.24791430881625037  0.594237771776531  0.762396013858673  1.0000
  C   C8        1.0  0.1718075300692211  0.6154171104531967  0.7044145566568287  1.0000
  N   N2        1.0  0.1106306372551127  0.6324382150193764  0.6577976230226594  1.0000
  C   C9        1.0  0.2633010951892353  0.6183906397455945  0.8936084957313901  1.0000
  C   C10       1.0  0.3371786536695919  0.5983159309585473  0.9497615826469665  1.0000
  C   C11       1.0  0.3959501434413565  0.554126337051795  0.8752806084382501  1.0000
  C   C12       1.0  0.42963861915079365  0.3758340337297583  0.5751955045234112  1.0000
  C   C13       1.0  0.4884105382523655  0.33154972663163296  0.500764843143674  1.0000
  C   C14       1.0  0.5618187934538001  0.3927517684346329  0.5138325278322071  1.0000
  H   H1        1.0  0.5298109567726785  0.6268267329888972  0.7430212106600322  1.0000
  H   H2        1.0  0.2944492710890618  0.5332261828858542  0.585481723133453  1.0000
  H   H3        1.0  0.2182426623877367  0.6526813382009098  0.9523920776249235  1.0000
  H   H4        1.0  0.3489042667661736  0.6166675600699318  0.05136267771023095  1.0000
  H   H5        1.0  0.45253161456415786  0.5374799891078752  0.9213888457067652  1.0000
  H   H6        1.0  0.3734438354270413  0.32549550021268314  0.5645964585141441  1.0000
  H   H7        1.0  0.47705395433130027  0.24929714439153883  0.43303800216746646  1.0000
  H   H8        1.0  0.6068828309395778  0.35749539508963313  0.4555608577343835  1.0000
  C   C15       1.0  0.9143252764712172  0.1993434367118001  0.641998324000886  1.0000
  C   C16       1.0  0.9233917494410263  0.28312795662642065  0.5238647736787065  1.0000
  C   C17       1.0  0.9248275609401669  0.2182433794748655  0.4063687047490261  1.0000
  C   C18       1.0  0.9163896196937722  0.06820394466704682  0.4041120974484851  1.0000
  C   C19       1.0  0.9097124019003928  0.9829274043468835  0.521479990034611  1.0000
  C   C20       1.0  0.9094484268545293  0.046247290113162975  0.6411667228624258  1.0000
  C   C21       1.0  0.9196301543801496  0.9983696396195233  0.2779862870398093  1.0000
  H   H9        1.0  0.8505049556889888  0.27440645453735657  0.9375817754855149  1.0000
  H   H10       1.0  0.9277386325789165  0.39994647506217285  0.521988008221598  1.0000
  H   H11       1.0  0.9317116401274166  0.2854534737676635  0.3167962378550093  1.0000
  H   H12       1.0  0.90646968189593  0.8662662235045018  0.5195578616445629  1.0000
  H   H13       1.0  0.8695315090574989  0.7467179066194687  0.8421191946381057  1.0000
  H   H14       1.0  0.979947025868908  0.9717474801118358  0.2616424000536921  1.0000
  H   H15       1.0  0.8972640154022071  0.07210236044499196  0.1951402809153029  1.0000
  H   H16       1.0  0.8842441508983786  0.8974817261748713  0.28029127713082147  1.0000
  C   C22       1.0  0.9118868705033296  0.6227953918052644  0.26033443163142844  1.0000
  C   C23       1.0  0.831452252488195  0.6293496716605611  0.2519348485487549  1.0000
  C   C24       1.0  0.791435272516014  0.6326103692977736  0.1306534691564163  1.0000
  C   C25       1.0  0.8314522381161752  0.6293495767773756  0.016633853575425572  1.0000
  C   C26       1.0  0.9118868700885007  0.6227953842915757  0.022830598216334597  1.0000
  C   C27       1.0  0.9516839166067613  0.6195524565104813  0.1451934391413905  1.0000
  C   C28       1.0  0.708978025344364  0.6393292346200616  0.12317176310756661  1.0000
  N   N3        1.0  0.6427093396619235  0.6447291834094744  0.11715888115974016  1.0000
  H   H17       1.0  0.9423538294250613  0.6203131268477498  0.5908382451339329  1.0000
  H   H18       1.0  0.7997298630885745  0.6319345948363888  0.3394807983424517  1.0000
  H   H19       1.0  0.7997298941193994  0.6319344901382808  0.9233312644316927  1.0000
  H   H20       1.0  0.013712196590556003  0.6144980565501565  0.1508215520474927  1.0000
  H   H21       1.0  0.9423538050601742  0.6203128941196212  0.6978555429562743  1.0000
  Zn  Zn1       1.0  0.8278441679538041  0.6187217587934852  0.6347251373077771  1.0000
  Zn  Zn2       1.0  0.9959222134687606  0.6268679357388627  0.6484386848197294  1.0000
  C   C29       1.0  0.9119182224361402  0.617050621615632  0.8787079869100816  1.0000
  C   C30       1.0  0.9118499839162264  0.6285409813333107  0.4044561106083533  1.0000
  C   C31       1.0  0.9103663220144438  0.8861642571394934  0.6361500353869614  1.0000
  C   C32       1.0  0.9134018369611038  0.35942561052933275  0.6470141283699453  1.0000
  O   O1        1.0  0.9756223829938391  0.6335543943392627  0.45802888863040403  1.0000
  O   O2        1.0  0.9757131771074292  0.6182188805750883  0.8355431014803589  1.0000
  O   O3        1.0  0.974459138041579  0.8355315029929924  0.6396757678589589  1.0000
  O   O4        1.0  0.9768763646466394  0.41624177945713337  0.653896120218356  1.0000
  O   O5        1.0  0.8468899594191285  0.8293479122968939  0.6292676972225597  1.0000
  O   O6        1.0  0.8481439885050005  0.6120370223807865  0.8251349599188971  1.0000
  O   O7        1.0  0.8480531947318266  0.6273724858970187  0.4476191862164962  1.0000
  O   O8        1.0  0.8493071764408798  0.4100598607007937  0.6434865151513054  1.0000
