data_image0
_chemical_formula_structural       NC8NC6H8C6NCOH7C8H10Zn2C4O8
_chemical_formula_sum              "N3 C33 H25 O9 Zn2"
_cell_length_a       17.457602349358154
_cell_length_b       10.299619329790078
_cell_length_c       9.275657083861812
_cell_angle_alpha    85.86033376960795
_cell_angle_beta     92.37146316173272
_cell_angle_gamma    91.71362633690529

_space_group_name_H-M_alt    "P 1"
_space_group_IT_number       1

loop_
  _space_group_symop_operation_xyz
  'x, y, z'

loop_
  _atom_site_type_symbol
  _atom_site_label
  _atom_site_symmetry_multiplicity
  _atom_site_fract_x
  _atom_site_fract_y
  _atom_site_fract_z
  _atom_site_occupancy
  N   N1        1.0  0.7298452174709168  0.4461020832170337  0.4762571213865998  1.0000
  C   C1        1.0  0.6688094226768321  0.4001245548217467  0.4644721892244097  1.0000
  C   C2        1.0  0.5928782635774023  0.34293427071639293  0.4498223215800763  1.0000
  C   C3        1.0  0.5339767808565911  0.3834637484262131  0.5329297566337412  1.0000
  C   C4        1.0  0.45948112184623974  0.32839475208579794  0.5189619258221649  1.0000
  C   C5        1.0  0.3969666962199278  0.3711890816545289  0.606975833757605  1.0000
  C   C6        1.0  0.3227105078714805  0.3893840259827326  0.5451066374625095  1.0000
  C   C7        1.0  0.2638084205318005  0.4297301068524335  0.6283338257416005  1.0000
  C   C8        1.0  0.1881255832874661  0.4485200392290756  0.5640065743435003  1.0000
  N   N2        1.0  0.1272894961787355  0.4636207658710698  0.5122876309268503  1.0000
  C   C9        1.0  0.2786678194841374  0.4521268806915799  0.7739944639335183  1.0000
  C   C10       1.0  0.3521374225057514  0.4343228264344918  0.8362937692773136  1.0000
  C   C11       1.0  0.4110256089036874  0.39415904619202924  0.7535744654177816  1.0000
  C   C12       1.0  0.4451827489277715  0.23211182583201673  0.42029668632077755  1.0000
  C   C13       1.0  0.504070539299375  0.1918629917900665  0.33763310904682076  1.0000
  C   C14       1.0  0.5777786463214345  0.24704706212886562  0.35221114593760605  1.0000
  H   H1        1.0  0.5459996259095523  0.45898533114841755  0.6068695380353062  1.0000
  H   H2        1.0  0.3108839798296932  0.3739131859857361  0.4319044701195156  1.0000
  H   H3        1.0  0.2335137749689966  0.48329843241480286  0.8392793777098979  1.0000
  H   H4        1.0  0.3634525655576908  0.45134950384569694  0.949082006000733  1.0000
  H   H5        1.0  0.46727112609025573  0.3793933363220714  0.8047292676284945  1.0000
  H   H6        1.0  0.3887405740618314  0.18672379145014206  0.40847176296471543  1.0000
  H   H7        1.0  0.4925679377002133  0.11745199796711336  0.2623638991511106  1.0000
  H   H8        1.0  0.6229298858354593  0.21500831531630316  0.2874932242051371  1.0000
  C   C15       1.0  0.9284694778578149  0.07348843511218472  0.49422597643977806  1.0000
  C   C16       1.0  0.8921021948356304  0.07935292281351658  0.3560124296543299  1.0000
  C   C17       1.0  0.8749262320462093  0.9656255667962811  0.2854767770959843  1.0000
  C   C18       1.0  0.8923300714442641  0.8442050231869684  0.3561440601645547  1.0000
  C   C19       1.0  0.9286724761543531  0.8362248009730789  0.49433192864765463  1.0000
  C   C20       1.0  0.9468095727850481  0.9514852068621549  0.562343986633909  1.0000
  N   N3        1.0  0.8366426149406699  0.9753827070010815  0.14495640865092208  1.0000
  C   C21       1.0  0.8492241715884832  0.8907343114900202  0.0326722609737089  1.0000
  O   O1        1.0  0.9030361859625871  0.8114098756852917  0.04361077605826447  1.0000
  H   H9        1.0  0.9963373501145394  0.26959899050414005  0.7555847653579526  1.0000
  H   H10       1.0  0.8774844950659976  0.17256641550931917  0.3018527225613641  1.0000
  H   H11       1.0  0.8761611906760192  0.7558683032787663  0.30481387034043683  1.0000
  H   H12       1.0  0.9748537594071105  0.9460891685854725  0.6688839962103459  1.0000
  H   H13       1.0  0.9415887001911926  0.5056022353812225  0.5483007321450535  1.0000
  H   H14       1.0  0.8012525291461899  0.054316324357575274  0.1184012867923061  1.0000
  H   H15       1.0  0.8132544215994433  0.8975815057205555  0.9347489340127484  1.0000
  C   C22       1.0  0.9305239517705842  0.4529849483598827  0.07113588074955213  1.0000
  C   C23       1.0  0.9702765651304501  0.5537352530608513  0.1396914116678305  1.0000
  C   C24       1.0  0.0032589598321848268  0.6597455207789829  0.058954856472709594  1.0000
  C   C25       1.0  0.9976267067873287  0.6641696354023796  0.9078059113340036  1.0000
  C   C26       1.0  0.9595306494055098  0.5640738031538917  0.8379480191857658  1.0000
  C   C27       1.0  0.9266180267236002  0.4567282418357359  0.9174220229083967  1.0000
  C   C28       1.0  0.04655856165656136  0.7657969138755196  0.13409204967397037  1.0000
  C   C29       1.0  0.1307859704642238  0.7324513686076133  0.15956808890563745  1.0000
  H   H16       1.0  0.8960447382907546  0.24428568420088292  0.36581343439085967  1.0000
  H   H17       1.0  0.9742411304636671  0.5515022855341822  0.2567755709698998  1.0000
  H   H18       1.0  0.023502274944095403  0.7446851198128419  0.8437745486967976  1.0000
  H   H19       1.0  0.9575584810023954  0.5690479180875954  0.7207954916178432  1.0000
  H   H20       1.0  0.8360294557087905  0.30306103658400585  0.6413581050948585  1.0000
  H   H21       1.0  0.04238369729112024  0.8598933622893346  0.06788408309185034  1.0000
  H   H22       1.0  0.02105506983608052  0.7793810122248606  0.23965820021880657  1.0000
  H   H23       1.0  0.13622087134404337  0.6403043531246444  0.22879837861570285  1.0000
  H   H24       1.0  0.15777101664684823  0.7216884264120615  0.054838247271019824  1.0000
  H   H25       1.0  0.1616474484178947  0.8117701579389844  0.21494140354689506  1.0000
  Zn  Zn1       1.0  0.8445390117432037  0.4511541506657979  0.4866630674853545  1.0000
  Zn  Zn2       1.0  0.012595630373888556  0.4585581026654424  0.5018934805357906  1.0000
  C   C30       1.0  0.9273532439865234  0.45084687915397925  0.7574549246519047  1.0000
  C   C31       1.0  0.929783233087048  0.45886709429157446  0.2311019313412297  1.0000
  C   C32       1.0  0.9286566822010762  0.6920257939663526  0.4885694738674047  1.0000
  C   C33       1.0  0.9284797367566234  0.21768661697261193  0.4999874535348139  1.0000
  O   O2        1.0  0.9933112505580872  0.4636452915936977  0.29056786081956365  1.0000
  O   O3        1.0  0.9913763131443671  0.4516871285356605  0.709548111338882  1.0000
  O   O4        1.0  0.992427989332428  0.6464421211206983  0.4924211296923162  1.0000
  O   O5        1.0  0.9922595175248073  0.2688903052946303  0.5076947292294804  1.0000
  O   O6        1.0  0.8648750672428444  0.640821945511385  0.48086181358669355  1.0000
  O   O7        1.0  0.8638233918212143  0.44606851290771177  0.6979887186192033  1.0000
  O   O8        1.0  0.8657583372697056  0.458026623048601  0.27900673566583367  1.0000
  O   O9        1.0  0.8647066037322039  0.26327162793833825  0.4961337121074283  1.0000
