data_image0
_chemical_formula_structural       NC8NC6H8C6ClH5C6H6Zn2C4O8
_chemical_formula_sum              "N2 C30 H19 Cl1 Zn2 O8"
_cell_length_a       17.457602349358154
_cell_length_b       10.30297070629231
_cell_length_c       10.681121600428288
_cell_angle_alpha    85.56070620365333
_cell_angle_beta     92.87590736930572
_cell_angle_gamma    91.68807172504815

_space_group_name_H-M_alt    "P 1"
_space_group_IT_number       1

loop_
  _space_group_symop_operation_xyz
  'x, y, z'

loop_
  _atom_site_type_symbol
  _atom_site_label
  _atom_site_symmetry_multiplicity
  _atom_site_fract_x
  _atom_site_fract_y
  _atom_site_fract_z
  _atom_site_occupancy
  N   N1        1.0  0.7224250403678861  0.4523638492083979  0.6755700374067801  1.0000
  C   C1        1.0  0.6613471067227387  0.40645355826475216  0.6653335280513772  1.0000
  C   C2        1.0  0.5853635742349695  0.3493468688366037  0.6526085115142428  1.0000
  C   C3        1.0  0.5268349447277664  0.3894955332687622  0.7248306868905969  1.0000
  C   C4        1.0  0.4522894950174043  0.33450641787133284  0.7126981594388384  1.0000
  C   C5        1.0  0.3901699691323876  0.37689749390494853  0.789184182296073  1.0000
  C   C6        1.0  0.3156233069299363  0.3953600201105749  0.7354126643465626  1.0000
  C   C7        1.0  0.2570946745741062  0.43532481852908567  0.8077389370641217  1.0000
  C   C8        1.0  0.18110985710853902  0.45439300585677933  0.7518310991476755  1.0000
  N   N2        1.0  0.1200309803733981  0.4697174508411297  0.7068813431147056  1.0000
  C   C9        1.0  0.2726205417116366  0.4570701522455367  0.9343270800067884  1.0000
  C   C10       1.0  0.3463824999030883  0.4389964856753512  0.9884723502543851  1.0000
  C   C11       1.0  0.40489952733332  0.3992116821783207  0.916587448073694  1.0000
  C   C12       1.0  0.43756132066550507  0.2386914414632848  0.6269617238380247  1.0000
  C   C13       1.0  0.4960782320231705  0.19882136574402964  0.5551252628178618  1.0000
  C   C14       1.0  0.5698389160655406  0.25392281911524517  0.5677880946943421  1.0000
  H   H1        1.0  0.5391789848836057  0.4646653262732987  0.7890812097197915  1.0000
  H   H2        1.0  0.3032783077039888  0.38039481905764294  0.637032715391739  1.0000
  H   H3        1.0  0.2277595692137064  0.4879427759367292  0.9910611757044856  1.0000
  H   H4        1.0  0.3582137881423942  0.4555188425201777  0.0864923723896025  1.0000
  H   H5        1.0  0.46138514040479944  0.3842246382134964  0.9610468794674192  1.0000
  H   H6        1.0  0.3810766650573294  0.19337062740494426  0.6166903877838614  1.0000
  H   H7        1.0  0.4842480017096504  0.1247676745924331  0.4897192253829614  1.0000
  H   H8        1.0  0.614699932444998  0.22218077858142493  0.5115468654538138  1.0000
  C   C15       1.0  0.9212316639681526  0.07979334689805473  0.6912313795570513  1.0000
  C   C16       1.0  0.0004534538005629418  0.0801079739211581  0.7215907083903097  1.0000
  C   C17       1.0  0.039761191452480915  0.9633072395423793  0.7366541095173345  1.0000
  C   C18       1.0  0.0004534531880655557  0.845000005224411  0.7215906494465065  1.0000
  C   C19       1.0  0.9212316721558855  0.8422782890682273  0.6912314518888407  1.0000
  C   C20       1.0  0.88200694769374  0.960284178760954  0.6761997479986026  1.0000
  Cl  Cl1       1.0  0.1387280820209258  0.9652038005975755  0.7745800581713316  1.0000
  H   H9        1.0  0.8913902032582722  0.40697795073214404  0.6797948509985363  1.0000
  H   H10       1.0  0.03196188493272567  0.17075837324331355  0.7336652437732616  1.0000
  H   H11       1.0  0.0319618545923579  0.7555571790908311  0.733665151411248  1.0000
  H   H12       1.0  0.8209086992499878  0.9591132016493706  0.6527856806374246  1.0000
  H   H13       1.0  0.8913901995167872  0.5139499838930959  0.6797950871393106  1.0000
  C   C21       1.0  0.9212316931160585  0.461035783727602  0.3234861672038043  1.0000
  C   C22       1.0  0.86631788465266  0.38643409261757267  0.25773923244557717  1.0000
  C   C23       1.0  0.8663178367518625  0.3864341737730992  0.12685708872051737  1.0000
  C   C24       1.0  0.92123163280316  0.4610358447362499  0.05897659813053302  1.0000
  C   C25       1.0  0.9761001169962313  0.5355757213654362  0.12471938326873633  1.0000
  C   C26       1.0  0.9761001071803765  0.5355757008055444  0.25561168115878585  1.0000
  H   H14       1.0  0.9767641101754936  0.5364785684646141  0.621117071988794  1.0000
  H   H15       1.0  0.8232738491746155  0.32795776142002264  0.3073863617276624  1.0000
  H   H16       1.0  0.8232738331514718  0.32795782183243016  0.07888233124031574  1.0000
  H   H17       1.0  0.019149773481327736  0.5940597560081595  0.07511703200706488  1.0000
  H   H18       1.0  0.019149734826231057  0.5940597088094406  0.3035413964473941  1.0000
  H   H19       1.0  0.9767643496247602  0.5364781265930243  0.7591880651318816  1.0000
  Zn  Zn1       1.0  0.8371655259242855  0.4573682421883083  0.6846130344723469  1.0000
  Zn  Zn2       1.0  0.0052904805662616905  0.4647024134332671  0.6978485987491276  1.0000
  C   C27       1.0  0.9212299527985299  0.4558637051254726  0.9199530405436529  1.0000
  C   C28       1.0  0.9212278896113412  0.4662086686826894  0.462508860122784  1.0000
  C   C29       1.0  0.9212277350058058  0.6981522031640952  0.6862407931463756  1.0000
  C   C30       1.0  0.9212300500347164  0.22391860833582888  0.6962211697688407  1.0000
  O   O1        1.0  0.9850291572162958  0.470722351956816  0.514188973519482  1.0000
  O   O2        1.0  0.9850316356201761  0.45691550871463593  0.8783180536917978  1.0000
  O   O3        1.0  0.9850289846356313  0.6525664975172085  0.6895936926545212  1.0000
  O   O4        1.0  0.9850317508311869  0.2750713699388463  0.702913236144217  1.0000
  O   O5        1.0  0.8574241982865646  0.6469992831813498  0.6795483925540222  1.0000
  O   O6        1.0  0.8574268492676628  0.45134985418563534  0.868272686819284  1.0000
  O   O7        1.0  0.8574243709148764  0.46515665218842206  0.5041421010284051  1.0000
  O   O8        1.0  0.8574269645266257  0.26950566088447037  0.6928664575424468  1.0000
