data_image0
_chemical_formula_structural       NC9NC5H8C6NCOH7C8H10Zn2C4O8
_chemical_formula_sum              "N3 C33 H25 O9 Zn2"
_cell_length_a       17.807436237873137
_cell_length_b       10.299619329790078
_cell_length_c       9.275657083861812
_cell_angle_alpha    85.86033376960795
_cell_angle_beta     88.90332225934054
_cell_angle_gamma    88.41592915749165

_space_group_name_H-M_alt    "P 1"
_space_group_IT_number       1

loop_
  _space_group_symop_operation_xyz
  'x, y, z'

loop_
  _atom_site_type_symbol
  _atom_site_label
  _atom_site_symmetry_multiplicity
  _atom_site_fract_x
  _atom_site_fract_y
  _atom_site_fract_z
  _atom_site_occupancy
  N   N1        1.0  0.7150124375326175  0.37999384338341247  0.39844551676510465  1.0000
  C   C1        1.0  0.6544710502382379  0.34474548577489617  0.3862041262717484  1.0000
  C   C2        1.0  0.5791642185807323  0.3009004105706061  0.3709771656600964  1.0000
  C   C3        1.0  0.5615810445556338  0.22892303376252165  0.2544071726187169  1.0000
  C   C4        1.0  0.4884623817541587  0.1862409055602916  0.23953103839844236  1.0000
  C   C5        1.0  0.4318782389244984  0.21515845591886174  0.3411888312226419  1.0000
  C   C6        1.0  0.3541715670955896  0.1699137016437129  0.32547047529822426  1.0000
  C   C7        1.0  0.29188637060852934  0.25180784134204215  0.3542739450645851  1.0000
  C   C8        1.0  0.2186252813940946  0.2089227514179719  0.3394129755066919  1.0000
  C   C9        1.0  0.1552888706197764  0.29351015622439935  0.3686207071611327  1.0000
  N   N2        1.0  0.1043793867728289  0.3615125834598836  0.3921029162999421  1.0000
  C   C10       1.0  0.2070659037814636  0.08388540960559965  0.2957203671658546  1.0000
  C   C11       1.0  0.2684937689318566  0.0019773728004812696  0.266907582585052  1.0000
  C   C12       1.0  0.3416363395762196  0.04446684079530061  0.281543673544687  1.0000
  C   C13       1.0  0.4501518462719695  0.28763136809117507  0.4580022426511765  1.0000
  C   C14       1.0  0.5233241117750029  0.330122269587408  0.47270557017545034  1.0000
  H   H1        1.0  0.604329924158844  0.20605338416459906  0.1747974301724482  1.0000
  H   H2        1.0  0.4759518938578984  0.13211453340309443  0.14747633458094045  1.0000
  H   H3        1.0  0.3002643420843519  0.3494262162585229  0.3863407135104362  1.0000
  H   H4        1.0  0.1506451698430257  0.049793020754277606  0.28395537489445455  1.0000
  H   H5        1.0  0.2594236895289134  0.9051726447040885  0.23350834663855413  1.0000
  H   H6        1.0  0.3883556170355345  0.9786205826223958  0.2603910444490609  1.0000
  H   H7        1.0  0.4081132114029695  0.3099689216805608  0.5390489284261242  1.0000
  H   H8        1.0  0.5363684936022938  0.3854636207242257  0.563604115179607  1.0000
  C   C15       1.0  0.9096000201771639  0.9893891200092985  0.39523827578107373  1.0000
  C   C16       1.0  0.8739718362038044  0.9985476994037416  0.2609019848574725  1.0000
  C   C17       1.0  0.8571449436969382  0.8863761152683727  0.19219752772737841  1.0000
  C   C18       1.0  0.8741950816337881  0.7633791590699098  0.2610093205663486  1.0000
  C   C19       1.0  0.9097988929016108  0.7521070986015609  0.39532258556010214  1.0000
  C   C20       1.0  0.9275673859481446  0.8657246746066477  0.4614009779440804  1.0000
  N   N3        1.0  0.8196393716537975  0.8996009257143807  0.05575872288839134  1.0000
  C   C21       1.0  0.8319652309885763  0.8138129124536327  0.942133207085488  1.0000
  O   O1        1.0  0.884683613797876  0.7296142684373318  0.9473346164301804  1.0000
  H   H9        1.0  0.9760886010581733  0.17935230953689674  0.6493614099109051  1.0000
  H   H10       1.0  0.8596512146621256  0.09308524051289813  0.20830072693663637  1.0000
  H   H11       1.0  0.8583548040330956  0.6765069911270851  0.21140295728434433  1.0000
  H   H12       1.0  0.9550416253557067  0.8577884377087092  0.564951088965137  1.0000
  H   H13       1.0  0.9224526181178975  0.42031460161064543  0.4479143407547941  1.0000
  H   H14       1.0  0.7849685251473492  0.9817401217654107  0.032976674138211814  1.0000
  H   H15       1.0  0.7967265009106788  0.8239181904560543  0.8480447534613424  1.0000
  C   C22       1.0  0.9116127406349438  0.3686995422189159  0.9719291447283092  1.0000
  C   C23       1.0  0.9505574542486382  0.46584911729242484  0.03624649670208768  1.0000
  C   C24       1.0  0.9828695416156972  0.5688718912145632  0.9519935616026158  1.0000
  C   C25       1.0  0.9773517538957773  0.5738061665215961  0.8014450926149679  1.0000
  C   C26       1.0  0.940029929765249  0.47716101564749525  0.7356487676095602  1.0000
  C   C27       1.0  0.9077861964282947  0.3727966282847557  0.8186317125732603  1.0000
  C   C28       1.0  0.025289157588412214  0.6710012740086624  0.02251441778230645  1.0000
  C   C29       1.0  0.1078047971199172  0.6300265416080153  0.03901064913752439  1.0000
  H   H16       1.0  0.8778342546158822  0.1631233513629069  0.2702826598786199  1.0000
  H   H17       1.0  0.9544414469840894  0.4632570456302345  0.15290797845168447  1.0000
  H   H18       1.0  0.00270144807397954  0.6519778823841647  0.7346550361745074  1.0000
  H   H19       1.0  0.9380978421069616  0.4823137665147701  0.6187065004973573  1.0000
  H   H20       1.0  0.8190386737708942  0.22733479430281855  0.55222579059541  1.0000
  H   H21       1.0  0.021199139767036135  0.7654758751158655  0.9567515495410075  1.0000
  H   H22       1.0  0.0003039779699931522  0.6868954388125115  0.1307995936416877  1.0000
  H   H23       1.0  0.11312924349951237  0.5373872412922702  0.10766150316959378  1.0000
  H   H24       1.0  0.13424142119594928  0.6168193360779113  0.9314038279817809  1.0000
  H   H25       1.0  0.1380390715239863  0.7065499464697165  0.09109370296308805  1.0000
  Zn  Zn1       1.0  0.8273752885171964  0.3746571260903184  0.3966235165009586  1.0000
  Zn  Zn2       1.0  0.9920164612675046  0.36683877206655247  0.39393676732317573  1.0000
  C   C30       1.0  0.9085064717342022  0.36684867077167893  0.6585862299777279  1.0000
  C   C31       1.0  0.9108870757148168  0.3746487812920143  0.1319741661866296  1.0000
  C   C32       1.0  0.9097834199317805  0.6079095221864534  0.38956181463393347  1.0000
  C   C33       1.0  0.9096100705824665  0.13358637263469486  0.40099865913546595  1.0000
  O   O2        1.0  0.9731240014851669  0.3736727099977313  0.18466712948047181  1.0000
  O   O3        1.0  0.97122838816396  0.3618898105483983  0.6038536711165912  1.0000
  O   O4        1.0  0.9722586909414808  0.5565495439469625  0.3866145662283067  1.0000
  O   O5        1.0  0.972093643017703  0.17901298803408827  0.4019061271925941  1.0000
  O   O6        1.0  0.8472980505830807  0.5624829127921804  0.3886541575408131  1.0000
  O   O7        1.0  0.8462677485564147  0.36782473930555826  0.605893185733329  1.0000
  O   O8        1.0  0.8481633697491008  0.37960758510996695  0.18670491080654017  1.0000
  O   O9        1.0  0.8471330107876626  0.18494785438080008  0.40394401660409796  1.0000
