data_image0
_chemical_formula_structural       NC8NC6H8C7NH5C6NH7Zn2C4O8
_chemical_formula_sum              "N4 C31 H20 Zn2 O8"
_cell_length_a       17.457602349358154
_cell_length_b       10.302819778424748
_cell_length_c       9.274774538082514
_cell_angle_alpha    85.06361955087615
_cell_angle_beta     93.23827242343725
_cell_angle_gamma    91.68806980205999

_space_group_name_H-M_alt    "P 1"
_space_group_IT_number       1

loop_
  _space_group_symop_operation_xyz
  'x, y, z'

loop_
  _atom_site_type_symbol
  _atom_site_label
  _atom_site_symmetry_multiplicity
  _atom_site_fract_x
  _atom_site_fract_y
  _atom_site_fract_z
  _atom_site_occupancy
  N   N1        1.0  0.7174646801860414  0.4641312568155753  0.4731805653907255  1.0000
  C   C1        1.0  0.6563484090329748  0.4183110792854945  0.46137978745727204  1.0000
  C   C2        1.0  0.5803172191457495  0.3613164094245358  0.4467102268529266  1.0000
  C   C3        1.0  0.5220590796060571  0.4008251360768096  0.5299688582699873  1.0000
  C   C4        1.0  0.4474681914811057  0.3459428165783687  0.5159823265872054  1.0000
  C   C5        1.0  0.3856351247328338  0.38765617235956285  0.6041563749614558  1.0000
  C   C6        1.0  0.3108870739398822  0.40659585910915763  0.5421678948683226  1.0000
  C   C7        1.0  0.2526293214265016  0.44591979383389924  0.625546531000726  1.0000
  C   C8        1.0  0.1764351142881965  0.465484097222415  0.5610952744598472  1.0000
  N   N2        1.0  0.1151878888017987  0.4812074181345005  0.5092766321100577  1.0000
  C   C9        1.0  0.268629293488484  0.46654275802423273  0.7714789314910553  1.0000
  C   C10       1.0  0.3425940400621124  0.4479886218617366  0.8338982779363717  1.0000
  C   C11       1.0  0.4008418406933085  0.4088407702568746  0.7510284593036223  1.0000
  C   C12       1.0  0.4324189138133014  0.25088681827639103  0.41714428458518493  1.0000
  C   C13       1.0  0.4906667797982164  0.2116532635842876  0.33433030952743703  1.0000
  C   C14       1.0  0.564474888380279  0.2666432195250006  0.3489281828096631  1.0000
  H   H1        1.0  0.5346437531674394  0.4754262033975125  0.6040376697255736  1.0000
  H   H2        1.0  0.2981736166434725  0.39250295336510277  0.428754254621895  1.0000
  H   H3        1.0  0.2239808042691413  0.49691266913908394  0.8368827099884735  1.0000
  H   H4        1.0  0.354792438323442  0.4636418983311035  0.9468969900787287  1.0000
  H   H5        1.0  0.4574939661170844  0.39345920390889044  0.8022818492669506  1.0000
  H   H6        1.0  0.3758957902510791  0.20565643513680798  0.40530335801543704  1.0000
  H   H7        1.0  0.47859158835702137  0.13817856251870198  0.2589294063695531  1.0000
  H   H8        1.0  0.6091252674099231  0.2353995076882498  0.2840925869210795  1.0000
  C   C15       1.0  0.9163299665999823  0.09141640024618236  0.4912351450961594  1.0000
  C   C16       1.0  0.8719455924284579  0.07862157780079704  0.6135891568986758  1.0000
  C   C17       1.0  0.8498639287731727  0.9551534519149422  0.67446143333923  1.0000
  C   C18       1.0  0.8719456543823733  0.8433205706130484  0.6135891672511209  1.0000
  C   C19       1.0  0.9163299793891923  0.8539124276414743  0.4912351891528852  1.0000
  C   C20       1.0  0.93829028232967  0.9784500446445593  0.43069747798496993  1.0000
  C   C21       1.0  0.8043635129998845  0.9431659947719399  0.7998922830830486  1.0000
  N   N3        1.0  0.767796067162141  0.9335320328385515  0.9006975391417305  1.0000
  H   H9        1.0  0.9331416825882661  0.4235852029634364  0.44488980485312646  1.0000
  H   H10       1.0  0.8544408892893255  0.16443411642732908  0.6618439825821998  1.0000
  H   H11       1.0  0.8544409849592541  0.7482845166791716  0.6618439569785839  1.0000
  H   H12       1.0  0.9725179435859652  0.987467514788409  0.33634247223218394  1.0000
  H   H13       1.0  0.9331417533482501  0.5306021245551419  0.4448899209660133  1.0000
  C   C22       1.0  0.9149526876160984  0.4759258883368642  0.06729386166977225  1.0000
  C   C23       1.0  0.9693320243523484  0.5548755498741014  0.13896566634703955  1.0000
  C   C24       1.0  0.02715432967816689  0.6232784338453985  0.06344851653548678  1.0000
  C   C25       1.0  0.031065607375851734  0.6130507353437717  0.9148260753449216  1.0000
  C   C26       1.0  0.9769324885382928  0.5369716607192858  0.8414740542387804  1.0000
  C   C27       1.0  0.9177072488754833  0.4694029510032056  0.915176482524827  1.0000
  N   N4        1.0  0.08241469316188055  0.7020853007665517  0.13820552544371334  1.0000
  H   H14       1.0  0.8002391458962667  0.21720665866436684  0.18280313342358956  1.0000
  H   H15       1.0  0.9679505946514676  0.5609737011879166  0.2548604221049231  1.0000
  H   H16       1.0  0.07570877090567985  0.6651284282539849  0.8553469750916625  1.0000
  H   H17       1.0  0.9803546538816742  0.5335072279219257  0.7256115889454096  1.0000
  H   H18       1.0  0.8380866928825218  0.29899764538773654  0.6418685889305715  1.0000
  H   H19       1.0  0.08018612987184359  0.7101311853106225  0.2493731918092814  1.0000
  H   H20       1.0  0.12595016174715767  0.7530944789337741  0.08291457900426069  1.0000
  Zn  Zn1       1.0  0.8322390340107478  0.4690555223360531  0.48360544605391653  1.0000
  Zn  Zn2       1.0  0.000413559125569396  0.47627241710078017  0.4988635708877338  1.0000
  C   C28       1.0  0.9171848701027772  0.4654637740658236  0.7549083583737008  1.0000
  C   C29       1.0  0.9154695599544823  0.4798658812108383  0.2275609668819143  1.0000
  C   C30       1.0  0.916307334921777  0.7098285734628034  0.48548195447829867  1.0000
  C   C31       1.0  0.9163470379993003  0.23549951893066678  0.4969874425384395  1.0000
  O   O1        1.0  0.9794643828650266  0.4839212887439277  0.2871384503048169  1.0000
  O   O2        1.0  0.9808306191106266  0.4668848464439097  0.7069110230719664  1.0000
  O   O3        1.0  0.9801211428884131  0.6642124639032707  0.48934721763181566  1.0000
  O   O4        1.0  0.9801738013490059  0.2865936789420733  0.5047021422937543  1.0000
  O   O5        1.0  0.8524787343975753  0.6587342580334608  0.47776686943345315  1.0000
  O   O6        1.0  0.853188210366234  0.461408200995991  0.6953305978980377  1.0000
  O   O7        1.0  0.851821968532798  0.47844461140902084  0.2755562894349124  1.0000
  O   O8        1.0  0.8525313873652752  0.28111699148836  0.4931200896606207  1.0000
