data_image0
_chemical_formula_structural       NC8NC6H8C6H6C6SCH8Zn2C4O8
_chemical_formula_sum              "N2 C31 H22 S1 Zn2 O8"
_cell_length_a       17.457602349358154
_cell_length_b       10.681118228259551
_cell_length_c       10.302812801239593
_cell_angle_alpha    85.56070456514432
_cell_angle_beta     92.87590592568559
_cell_angle_gamma    91.68806569353352

_space_group_name_H-M_alt    "P 1"
_space_group_IT_number       1

loop_
  _space_group_symop_operation_xyz
  'x, y, z'

loop_
  _atom_site_type_symbol
  _atom_site_label
  _atom_site_symmetry_multiplicity
  _atom_site_fract_x
  _atom_site_fract_y
  _atom_site_fract_z
  _atom_site_occupancy
  N   N1        1.0  0.7224249732150264  0.40094536224481736  0.6269383581349166  1.0000
  C   C1        1.0  0.6613470425508428  0.3566604509864042  0.6163259730803616  1.0000
  C   C2        1.0  0.5853635137708911  0.30157553164412265  0.6031337050287613  1.0000
  C   C3        1.0  0.5268348806146674  0.3403027932897902  0.6780078067267437  1.0000
  C   C4        1.0  0.45228943447264625  0.28726047868254767  0.6654297834260854  1.0000
  C   C5        1.0  0.3901699047310124  0.32815076272073895  0.744724296832131  1.0000
  C   C6        1.0  0.31562324228329175  0.34595965683597174  0.6889783438510202  1.0000
  C   C7        1.0  0.2570946062879898  0.38450956193759267  0.7639603652331988  1.0000
  C   C8        1.0  0.1811097885752405  0.4029026748713489  0.7059996488013125  1.0000
  N   N2        1.0  0.1200309116417535  0.41768458583245516  0.659399383789915  1.0000
  C   C9        1.0  0.2726204700083512  0.4054850291988492  0.8951966971181484  1.0000
  C   C10       1.0  0.3463824284150953  0.38805122775288114  0.9513301262150844  1.0000
  C   C11       1.0  0.4048994594665027  0.3496749451168082  0.8768056820540588  1.0000
  C   C12       1.0  0.4375612674023509  0.19483768098337761  0.576545189806895  1.0000
  C   C13       1.0  0.49607818238561774  0.156379145045898  0.5020709655139926  1.0000
  C   C14       1.0  0.5698388628440307  0.20952982044905855  0.5151987654836983  1.0000
  H   H1        1.0  0.5391789151074827  0.41281131806810367  0.7446175459889508  1.0000
  H   H2        1.0  0.3032782455945461  0.33152428083037955  0.5869859824499544  1.0000
  H   H3        1.0  0.2277594946847408  0.435264654227689  0.9540140122620293  1.0000
  H   H4        1.0  0.3582137140277403  0.4039886310117784  0.05294934469803281  1.0000
  H   H5        1.0  0.4613850727237364  0.33521849007455073  0.9228976182133237  1.0000
  H   H6        1.0  0.3810766147396028  0.15112137714439888  0.5658966992711965  1.0000
  H   H7        1.0  0.48424795768578527  0.08494720843021142  0.43426328235678113  1.0000
  H   H8        1.0  0.6146998820943084  0.17891155883103638  0.4568924143259907  1.0000
  C   C15       1.0  0.9212316193800879  0.041565110177685716  0.6431747570807596  1.0000
  C   C16       1.0  0.95491165037359  0.9684697684588601  0.7490292054895813  1.0000
  C   C17       1.0  0.9549116386438914  0.8375875297892469  0.749029145175286  1.0000
  C   C18       1.0  0.9212316064989402  0.7770555135922108  0.6431748121519636  1.0000
  C   C19       1.0  0.8875794559467987  0.8501406292913071  0.5374078430459028  1.0000
  C   C20       1.0  0.8875794676380825  0.9810328878823531  0.537407896692637  1.0000
  H   H9        1.0  0.887171784564717  0.346627311615163  0.5361277692741298  1.0000
  H   H10       1.0  0.9813116931161318  0.012356826650635755  0.8320028814039071  1.0000
  H   H11       1.0  0.9813115987889538  0.7838527940837213  0.8320028507698043  1.0000
  H   H12       1.0  0.8611759710053847  0.8062989692360305  0.45442333372701027  1.0000
  H   H13       1.0  0.861175950894926  0.0347234074232754  0.45442332152852405  1.0000
  H   H14       1.0  0.8871720670330876  0.4846979726175859  0.5361274411389405  1.0000
  C   C21       1.0  0.9212316312313437  0.40931030432150295  0.26192632549314365  1.0000
  C   C22       1.0  0.8953578186811169  0.5331064640180956  0.24861668563231976  1.0000
  C   C23       1.0  0.8822860331608732  0.5945104900794773  0.12500249571753175  1.0000
  C   C24       1.0  0.8953577495152614  0.5331063296473324  0.013465510296280181  1.0000
  C   C25       1.0  0.9212315814673756  0.4093102937870432  0.024423225059891918  1.0000
  C   C26       1.0  0.9340184151560971  0.3480052433363623  0.1491813030058804  1.0000
  S   S1        1.0  0.8493859798208228  0.752777746496706  0.10950518130669096  1.0000
  C   C27       1.0  0.7484683762166983  0.7047752216552028  0.10477828083500196  1.0000
  H   H15       1.0  0.9309537113822419  0.3626402779854634  0.5942541218468518  1.0000
  H   H16       1.0  0.8850796927150651  0.5822786108815869  0.333896621870448  1.0000
  H   H17       1.0  0.8850795391123294  0.5822784240187453  0.918546296348028  1.0000
  H   H18       1.0  0.9539621212644597  0.2525068904840446  0.15854006344539817  1.0000
  H   H19       1.0  0.9309522828535238  0.3626395676822618  0.7012384197059642  1.0000
  H   H20       1.0  0.7348638713164193  0.6484917572302797  0.020021266582200825  1.0000
  H   H21       1.0  0.7348641999078297  0.6484930366735118  0.19625598544237977  1.0000
  H   H22       1.0  0.7129601887158634  0.7897183616536296  0.0949428516870765  1.0000
  Zn  Zn1       1.0  0.8371654583159168  0.4057725822518523  0.6363134050420696  1.0000
  Zn  Zn2       1.0  0.0052904122906092255  0.41284709824541044  0.6500349660511615  1.0000
  C   C28       1.0  0.9212298814059113  0.4043212953220461  0.8802948574624423  1.0000
  C   C29       1.0  0.921227825119829  0.4143000425321903  0.4060537908961137  1.0000
  C   C30       1.0  0.9212276526207865  0.6380319795025247  0.638000940995467  1.0000
  C   C31       1.0  0.9212299965356996  0.18058785135444655  0.6483477718975306  1.0000
  O   O1        1.0  0.9850290915970351  0.41865392279357727  0.4596315457980431  1.0000
  O   O2        1.0  0.9850315648489191  0.4053358642706044  0.8371310761430812  1.0000
  O   O3        1.0  0.9850289049878538  0.5940601612297118  0.6414769541290517  1.0000
  O   O4        1.0  0.985031694088448  0.22992963237888175  0.655285565785922  1.0000
  O   O5        1.0  0.8574241191452826  0.5886900457055597  0.6310628006179848  1.0000
  O   O6        1.0  0.857426779002807  0.3999672533308951  0.8267168534082483  1.0000
  O   O7        1.0  0.8574243058020445  0.4132852682162018  0.44921576215985803  1.0000
  O   O8        1.0  0.8574269082903144  0.22456096884427268  0.6448698794845638  1.0000
