data_image0
_chemical_formula_structural       NC9NC5H8C6NCOH7C7NH5Zn2C4O8
_chemical_formula_sum              "N4 C32 H20 O9 Zn2"
_cell_length_a       17.807436237873137
_cell_length_b       10.299619329790078
_cell_length_c       10.302823150593486
_cell_angle_alpha    85.56660440825654
_cell_angle_beta     89.3921433004221
_cell_angle_gamma    88.41592915749165

_space_group_name_H-M_alt    "P 1"
_space_group_IT_number       1

loop_
  _space_group_symop_operation_xyz
  'x, y, z'

loop_
  _atom_site_type_symbol
  _atom_site_label
  _atom_site_symmetry_multiplicity
  _atom_site_fract_x
  _atom_site_fract_y
  _atom_site_fract_z
  _atom_site_occupancy
  N   N1        1.0  0.707774497747397  0.38774365241329667  0.557723545366559  1.0000
  C   C1        1.0  0.6471777876724281  0.35255453002879356  0.5466995874148568  1.0000
  C   C2        1.0  0.5718021404827801  0.30878313701145466  0.5329869806970025  1.0000
  C   C3        1.0  0.5536921491690852  0.2373698341665995  0.4280101234996272  1.0000
  C   C4        1.0  0.48050625633275923  0.19475969052719067  0.41461345273602523  1.0000
  C   C5        1.0  0.4243815377630055  0.22318532600616514  0.5061611600136449  1.0000
  C   C6        1.0  0.3466038296284982  0.178016631745179  0.49200602830089424  1.0000
  C   C7        1.0  0.2844488052847879  0.25977139348763867  0.517944931217178  1.0000
  C   C8        1.0  0.2111205545694889  0.21695821474565946  0.5045619169577555  1.0000
  C   C9        1.0  0.1479161429280074  0.30140428540149267  0.5308648770502309  1.0000
  N   N2        1.0  0.0971127827362648  0.36929308388545423  0.5520117301221761  1.0000
  C   C10       1.0  0.19936371600779831  0.0921322983791295  0.4652146322345876  1.0000
  C   C11       1.0  0.2606613669181991  0.010363684603610368  0.43926734088213815  1.0000
  C   C12       1.0  0.3338700827647179  0.052782329587993004  0.4524478412022508  1.0000
  C   C13       1.0  0.4431830624850501  0.29509298633086556  0.6113572271174537  1.0000
  C   C14       1.0  0.5164217770538988  0.3375127394636739  0.6245982771816332  1.0000
  H   H1        1.0  0.5960812467429141  0.21488541048970244  0.3563177406980327  1.0000
  H   H2        1.0  0.46757974362426075  0.1410787645801328  0.3317137866653044  1.0000
  H   H3        1.0  0.2929716968002016  0.35723459957641945  0.5468225907596855  1.0000
  H   H4        1.0  0.1428898122855501  0.05809683949447164  0.4546196936798206  1.0000
  H   H5        1.0  0.2514403456264951  0.9137205730510435  0.409189730589991  1.0000
  H   H6        1.0  0.3804937646902586  0.987038427493315  0.43339888644137714  1.0000
  H   H7        1.0  0.4015107036544687  0.31703836073194624  0.6843436461515278  1.0000
  H   H8        1.0  0.5298769586399185  0.39241423896119354  0.7064567669128907  1.0000
  C   C15       1.0  0.902347585838457  0.9971544486517839  0.5548352713777402  1.0000
  C   C16       1.0  0.8661122929625572  0.006963071870110804  0.433859012730234  1.0000
  C   C17       1.0  0.8489749029178992  0.895123943750341  0.3719873612289004  1.0000
  C   C18       1.0  0.8663360234771297  0.7717940121463652  0.4339556736726331  1.0000
  C   C19       1.0  0.9025468395859101  0.7598720192749804  0.5549111963684046  1.0000
  C   C20       1.0  0.92061396213908  0.8731698466063015  0.6144179508953835  1.0000
  N   N3        1.0  0.810852720035646  0.9090089719365733  0.24911768818466706  1.0000
  C   C21       1.0  0.8226650691214418  0.8237707845216599  0.14679247364866432  1.0000
  O   O1        1.0  0.8754069587723939  0.7395469712529047  0.1514765916772982  1.0000
  H   H9        1.0  0.9699846308910681  0.18588795428152016  0.7836853147386167  1.0000
  H   H10       1.0  0.8515539494192588  0.10175514675122854  0.38648906273634687  1.0000
  H   H11       1.0  0.8502715587668773  0.6851618858918669  0.38928276962186636  1.0000
  H   H12       1.0  0.948556177801068  0.864732538034663  0.7076697812662669  1.0000
  H   H13       1.0  0.9154382438579408  0.4278250344951249  0.6022725887026452  1.0000
  H   H14       1.0  0.7760789141239676  0.9912584087124563  0.2286013630488979  1.0000
  H   H15       1.0  0.7870011230618558  0.8343313499058953  0.06206131855184971  1.0000
  C   C22       1.0  0.9024472361926803  0.37851323384911506  0.1736251413823069  1.0000
  C   C23       1.0  0.823724560402655  0.3916567335691641  0.172951555653853  1.0000
  C   C24       1.0  0.7845592871150503  0.3981956419670829  0.05551393264504423  1.0000
  C   C25       1.0  0.8237245457723084  0.3916566494614142  0.9376505620111772  1.0000
  C   C26       1.0  0.902447235742347  0.3785132271235807  0.936121308003143  1.0000
  C   C27       1.0  0.941397255672117  0.372010120722263  0.05466151776413253  1.0000
  C   C28       1.0  0.70385702974712  0.41166944432871766  0.05595250370578575  1.0000
  N   N4        1.0  0.6389987834991997  0.42249813785733403  0.0563049368738231  1.0000
  H   H16       1.0  0.9322657491500254  0.3735350736187877  0.5012025081033529  1.0000
  H   H17       1.0  0.7926773392153187  0.39684036131393063  0.26354454045016573  1.0000
  H   H18       1.0  0.7926773689855583  0.39684026428290387  0.8473950035058024  1.0000
  H   H19       1.0  0.002105347624072218  0.3618743493056493  0.05433161983059143  1.0000
  H   H20       1.0  0.9322657239250222  0.37353486634002  0.6082198081442698  1.0000
  Zn  Zn1       1.0  0.8201291145268094  0.3824157516507969  0.5560827469367695  1.0000
  Zn  Zn2       1.0  0.9847581449934987  0.3746103986165432  0.5536632007276421  1.0000
  C   C29       1.0  0.9024441914957706  0.37333967726352935  0.7919927066630765  1.0000
  C   C30       1.0  0.9024448661965573  0.38368802636702615  0.3177533421690819  1.0000
  C   C31       1.0  0.9025053318395445  0.6157023188235131  0.549723346467371  1.0000
  C   C32       1.0  0.9023836692687331  0.14132382718897252  0.5600227722518416  1.0000
  O   O2        1.0  0.9649199284146011  0.3824569775449598  0.3652058772399269  1.0000
  O   O3        1.0  0.9649187538895119  0.36864566402693  0.7427034181789218  1.0000
  O   O4        1.0  0.9649672832858361  0.5643566021108992  0.5470692082373652  1.0000
  O   O5        1.0  0.9648713428439704  0.18674605141452982  0.560839990664221  1.0000
  O   O6        1.0  0.8400158604965297  0.5702801015178081  0.5489059578190345  1.0000
  O   O7        1.0  0.8399673315044476  0.3745707237169065  0.7445400986923814  1.0000
  O   O8        1.0  0.8399685060677177  0.3883819919772826  0.3670409968421926  1.0000
  O   O9        1.0  0.8399199204915856  0.19267105655831163  0.5626752076025929  1.0000
