data_image0
_chemical_formula_structural       NC8NC6H8C6NCH9C6H6Zn2C4O8
_chemical_formula_sum              "N3 C31 H23 Zn2 O8"
_cell_length_a       17.457602349358154
_cell_length_b       9.273386996610926
_cell_length_c       10.681121600428288
_cell_angle_alpha    85.46621756597041
_cell_angle_beta     92.87590736930572
_cell_angle_gamma    91.0935878010965

_space_group_name_H-M_alt    "P 1"
_space_group_IT_number       1

loop_
  _space_group_symop_operation_xyz
  'x, y, z'

loop_
  _atom_site_type_symbol
  _atom_site_label
  _atom_site_symmetry_multiplicity
  _atom_site_fract_x
  _atom_site_fract_y
  _atom_site_fract_z
  _atom_site_occupancy
  N   N1        1.0  0.7134398122197545  0.6134759689342564  0.6725393737135139  1.0000
  C   C1        1.0  0.6526459082540158  0.5624728052265353  0.6623986658695478  1.0000
  C   C2        1.0  0.57701567334631  0.4990312157736376  0.6497928144922915  1.0000
  C   C3        1.0  0.5182386591729898  0.5436336101952559  0.7219312112069185  1.0000
  C   C4        1.0  0.44403340640968014  0.4825444992985184  0.7099134301499084  1.0000
  C   C5        1.0  0.3816516229025019  0.5296380581989155  0.7863109950803475  1.0000
  C   C6        1.0  0.3069907400037432  0.5501486502071331  0.7325009511733866  1.0000
  C   C7        1.0  0.24821486049157546  0.5945467821812342  0.8047438289044611  1.0000
  C   C8        1.0  0.1721120753324416  0.6157302218827525  0.748796201190808  1.0000
  N   N2        1.0  0.11093839202765018  0.6327546222993428  0.7038144674691487  1.0000
  C   C9        1.0  0.2636061974390945  0.6187043466972286  0.9312865956189678  1.0000
  C   C10       1.0  0.3374799705987409  0.5986257508980983  0.9854695803863169  1.0000
  C   C11       1.0  0.3962431316245204  0.5544275808553658  0.9136676975947187  1.0000
  C   C12       1.0  0.4298980032311362  0.3761006753334357  0.624376932719154  1.0000
  C   C13       1.0  0.4886615757314732  0.3318077737387908  0.5526236690265722  1.0000
  C   C14       1.0  0.5620813678340558  0.39302168436887475  0.5651715200914127  1.0000
  H   H1        1.0  0.530117652129836  0.6271420606904177  0.7860248763983981  1.0000
  H   H2        1.0  0.2947383248405403  0.5335233449970531  0.6341522302689708  1.0000
  H   H3        1.0  0.2185542276455844  0.6530017002500863  0.9879562690716557  1.0000
  H   H4        1.0  0.3492090412388711  0.6169809486908651  0.08345512513692832  1.0000
  H   H5        1.0  0.452821463892614  0.5377780096781533  0.9581584026186978  1.0000
  H   H6        1.0  0.373693730430888  0.3257523797492914  0.6142001681084968  1.0000
  H   H7        1.0  0.4772894877151271  0.24953923534938882  0.4873721602473171  1.0000
  H   H8        1.0  0.6071387602636602  0.3577584687262032  0.5089965273176278  1.0000
  C   C15       1.0  0.9145513892009157  0.19957586219506185  0.6889781628479887  1.0000
  C   C16       1.0  0.9280189632604587  0.2837046358897808  0.5768081180742548  1.0000
  C   C17       1.0  0.9342647412632927  0.21950466497826215  0.4640628647121856  1.0000
  C   C18       1.0  0.9271374266296758  0.06885832670420244  0.4605998913082907  1.0000
  C   C19       1.0  0.915021520627202  0.9838321943201429  0.5724829505019078  1.0000
  C   C20       1.0  0.9098341908451539  0.046643935258458  0.6873871291271587  1.0000
  N   N3        1.0  0.9327348106957606  0.9995904841092439  0.345465739410558  1.0000
  C   C21       1.0  0.9455122128896549  0.0781066821102594  0.224265928574372  1.0000
  H   H9        1.0  0.9302214945403368  0.4624805814832049  0.8958090644482197  1.0000
  H   H10       1.0  0.9319310718183946  0.4005402659005157  0.5755795326318975  1.0000
  H   H11       1.0  0.9439374383382623  0.28857590707351766  0.3797601679416749  1.0000
  H   H12       1.0  0.9114012054597915  0.8672555399933042  0.5702225473765901  1.0000
  H   H13       1.0  0.9380748286374615  0.9166516537090101  0.9946215828956926  1.0000
  H   H14       1.0  0.9273121865572959  0.8869603650930177  0.34763592153218914  1.0000
  H   H15       1.0  0.8979633830592765  0.15437413256058452  0.19876648024047783  1.0000
  H   H16       1.0  0.0010281927388957612  0.13835094709288454  0.22883599136133514  1.0000
  H   H17       1.0  0.9474457600498977  0.0007638642126470696  0.15028089788490373  1.0000
  C   C22       1.0  0.9121928149750664  0.6231098894966098  0.32043740768894846  1.0000
  C   C23       1.0  0.8577405390781978  0.540232560985924  0.254846145103935  1.0000
  C   C24       1.0  0.8577404906753214  0.5402326511441111  0.12396400120952711  1.0000
  C   C25       1.0  0.9121927542847303  0.6231099572730061  0.05592783848836991  1.0000
  C   C26       1.0  0.9666000883341844  0.7059186141629912  0.12151508044231929  1.0000
  C   C27       1.0  0.966600078645526  0.7059185913223709  0.25240737837527183  1.0000
  H   H18       1.0  0.967258495938473  0.7069216149598914  0.6179108851813588  1.0000
  H   H19       1.0  0.8150582746380112  0.47526939408383373  0.30461529759251404  1.0000
  H   H20       1.0  0.8150582582411187  0.4752694611978474  0.07611126697910442  1.0000
  H   H21       1.0  0.009287926123108692  0.7708903390608428  0.07179068989929038  1.0000
  H   H22       1.0  0.009287887760013103  0.7708902866263243  0.30021505443811014  1.0000
  H   H23       1.0  0.9672587381214328  0.7069211240710611  0.7559818792465047  1.0000
  Zn  Zn1       1.0  0.8281493374815335  0.6190355040442705  0.6815719280569488  1.0000
  Zn  Zn2       1.0  0.9962289183682009  0.6271832619647384  0.694792188037548  1.0000
  C   C28       1.0  0.9122230723599493  0.617364067236903  0.9169150736623699  1.0000
  C   C29       1.0  0.9121570087793356  0.6288566075587847  0.45944930629173064  1.0000
  C   C30       1.0  0.910721906880162  0.886529861571129  0.6826972401788634  1.0000
  C   C31       1.0  0.9136581265551865  0.359689077607964  0.693667205284102  1.0000
  O   O1        1.0  0.9759303519258092  0.6338709980630322  0.5111200009356627  1.0000
  O   O2        1.0  0.976018248068918  0.6185325484105975  0.8752778920003423  1.0000
  O   O3        1.0  0.9748051781024102  0.8358872897195566  0.6861452638827201  1.0000
  O   O4        1.0  0.9771433644806897  0.41651626429129807  0.7002525306265854  1.0000
  O   O5        1.0  0.8472348340117242  0.8297024989388506  0.6761115809498954  1.0000
  O   O6        1.0  0.8484478943248478  0.6123494904676252  0.8652441390406369  1.0000
  O   O7        1.0  0.8483599985127122  0.6276878898622182  0.5010847424517952  1.0000
  O   O8        1.0  0.8495730111218995  0.41033314577439883  0.6902173660514019  1.0000
