data_image0
_chemical_formula_structural       NC9NC5H8C6ClH5C7NH5Zn2C4O8
_chemical_formula_sum              "N3 C31 H18 Cl1 Zn2 O8"
_cell_length_a       17.807436237873137
_cell_length_b       10.30297070629231
_cell_length_c       10.302823150593486
_cell_angle_alpha    85.56070101248984
_cell_angle_beta     89.3921433004221
_cell_angle_gamma    88.39001192287228

_space_group_name_H-M_alt    "P 1"
_space_group_IT_number       1

loop_
  _space_group_symop_operation_xyz
  'x, y, z'

loop_
  _atom_site_type_symbol
  _atom_site_label
  _atom_site_symmetry_multiplicity
  _atom_site_fract_x
  _atom_site_fract_y
  _atom_site_fract_z
  _atom_site_occupancy
  N   N1        1.0  0.7074119547101818  0.3873203847967348  0.5575855032593422  1.0000
  C   C1        1.0  0.6468244376668539  0.3521419952416951  0.5465650456519551  1.0000
  C   C2        1.0  0.5714602255961777  0.3083839526822476  0.5328567929769512  1.0000
  C   C3        1.0  0.5533688907509637  0.2369924311933609  0.4278870394278551  1.0000
  C   C4        1.0  0.48019412966138697  0.19439528382592797  0.4144946071949114  1.0000
  C   C5        1.0  0.4240619849966166  0.22281224936722488  0.5060394869080784  1.0000
  C   C6        1.0  0.3462960770210046  0.1776573317468526  0.49188884823100176  1.0000
  C   C7        1.0  0.2841196945398765  0.259387157945139  0.5178196188098996  1.0000
  C   C8        1.0  0.2108026286135167  0.21658703740169116  0.504440863277513  1.0000
  C   C9        1.0  0.1475761557398449  0.30100735165287995  0.5307354233218098  1.0000
  N   N2        1.0  0.0967550598437073  0.36887544376944037  0.551875523336169  1.0000
  C   C10       1.0  0.1990784003734543  0.09179919346158805  0.4651059952802292  1.0000
  C   C11       1.0  0.2603974130400667  0.010055519455169915  0.43916683764305997  1.0000
  C   C12       1.0  0.3335950471681713  0.052461226575466924  0.4523431184813327  1.0000
  C   C13       1.0  0.4428447241010669  0.2946979775548584  0.6112284011887139  1.0000
  C   C14       1.0  0.5160723566620015  0.3371047924855919  0.6244652316608239  1.0000
  H   H1        1.0  0.5957638622995975  0.21451486535969955  0.3561968932044779  1.0000
  H   H2        1.0  0.4672816409016914  0.14073073078573972  0.3316002808914613  1.0000
  H   H3        1.0  0.2926171241432931  0.35682063734853964  0.5466875834593186  1.0000
  H   H4        1.0  0.1426133882924077  0.05777411553420264  0.4545144423121712  1.0000
  H   H5        1.0  0.2512016394136121  0.9134418844557206  0.4090988406672791  1.0000
  H   H6        1.0  0.3802359044516408  0.9867373766458233  0.4333007034201841  1.0000
  H   H7        1.0  0.4011666321203649  0.3166366585249869  0.684212637265063  1.0000
  H   H8        1.0  0.5295131954287686  0.3919895467962047  0.7063182602115048  1.0000
  C   C15       1.0  0.9020870828257008  0.9968503123755403  0.55473608209226  1.0000
  C   C16       1.0  0.9796625272174414  0.9900321969795516  0.5786047000085079  1.0000
  C   C17       1.0  0.018153392203350327  0.8696923861883262  0.5904475804041485  1.0000
  C   C18       1.0  0.9796625266176716  0.7549242283379566  0.5786046389592099  1.0000
  C   C19       1.0  0.9020870908432819  0.7593352538085228  0.554736156293886  1.0000
  C   C20       1.0  0.8636775139108295  0.8808727458121846  0.5429181675677124  1.0000
  Cl  Cl1       1.0  0.11506360506469604  0.8626784525433165  0.6202650815012514  1.0000
  H   H9        1.0  0.8728657716085999  0.3267216953534562  0.5457444649120693  1.0000
  H   H10       1.0  0.010516166756950218  0.07784573129562733  0.5880977179693097  1.0000
  H   H11       1.0  0.010516137047098306  0.6626445398748505  0.5880976251286865  1.0000
  H   H12       1.0  0.8038489770321787  0.885202756109862  0.5245099322754077  1.0000
  H   H13       1.0  0.8728657679448726  0.43369372885125007  0.5457447100826374  1.0000
  C   C21       1.0  0.9020871045691115  0.37809278154881  0.17348801744641507  1.0000
  C   C22       1.0  0.823360995087064  0.3912322724464874  0.1728131243033002  1.0000
  C   C23       1.0  0.7841940135331619  0.3977691864500039  0.05537485085397775  1.0000
  C   C24       1.0  0.8233609804786902  0.3912321883643908  0.9375121306689911  1.0000
  C   C25       1.0  0.902087104120535  0.37809277482532644  0.9359841840679208  1.0000
  C   C26       1.0  0.9410388229634596  0.37159165189865306  0.05452504070811548  1.0000
  C   C27       1.0  0.7034882361828325  0.4112388792455801  0.05581208164408147  1.0000
  N   N3        1.0  0.6386271609776807  0.422064269977392  0.056163437656644  1.0000
  H   H14       1.0  0.9319069180529093  0.37311613967816815  0.5010658793567042  1.0000
  H   H15       1.0  0.7923124196956258  0.39641431916311753  0.2634055934720363  1.0000
  H   H16       1.0  0.7923124494912144  0.39641422216168554  0.8472560565373248  1.0000
  H   H17       1.0  0.0017495628492372184  0.3614589719347021  0.05419615100346631  1.0000
  H   H18       1.0  0.9319068928820569  0.373115932462621  0.60808317941824  1.0000
  Zn  Zn1       1.0  0.8197679633845031  0.38199410906624465  0.5559452348083045  1.0000
  Zn  Zn2       1.0  0.984399032971595  0.37419113669730275  0.5535264650159009  1.0000
  C   C28       1.0  0.9020854114452495  0.37292080291961516  0.7918560973529605  1.0000
  C   C29       1.0  0.9020833826770577  0.3832659957333655  0.31761570348447443  1.0000
  C   C30       1.0  0.9020832354207401  0.6152095228605312  0.5495626287783812  1.0000
  C   C31       1.0  0.9020855025244388  0.14097571864945935  0.5599092421010476  1.0000
  O   O1        1.0  0.964558766502178  0.38203532238633753  0.36506836101062556  1.0000
  O   O2        1.0  0.9645612001330637  0.3682282213766799  0.7425672757932822  1.0000
  O   O3        1.0  0.9645586007508227  0.5638794668062066  0.5469135980269211  1.0000
  O   O4        1.0  0.9645613097069897  0.1863840889067041  0.5607219422585343  1.0000
  O   O5        1.0  0.8396056304686043  0.5698011595210286  0.5487497583842489  1.0000
  O   O6        1.0  0.8396082298474689  0.3741514738986764  0.744403366927195  1.0000
  O   O7        1.0  0.8396057962665876  0.3879585296644841  0.3669028912378458  1.0000
  O   O8        1.0  0.8396083394683244  0.19230728689914245  0.5625565698227859  1.0000
