data_image0
_chemical_formula_structural       NC8NC6H8C6NCOH7C7NH5Zn2C4O8
_chemical_formula_sum              "N4 C32 H20 O9 Zn2"
_cell_length_a       17.457602349358154
_cell_length_b       10.299619329790078
_cell_length_c       10.302823150593486
_cell_angle_alpha    85.56660440825654
_cell_angle_beta     92.87590926728866
_cell_angle_gamma    91.71362633690529

_space_group_name_H-M_alt    "P 1"
_space_group_IT_number       1

loop_
  _space_group_symop_operation_xyz
  'x, y, z'

loop_
  _atom_site_type_symbol
  _atom_site_label
  _atom_site_symmetry_multiplicity
  _atom_site_fract_x
  _atom_site_fract_y
  _atom_site_fract_z
  _atom_site_occupancy
  N   N1        1.0  0.7228126201073829  0.45284199379796974  0.6271214132220293  1.0000
  C   C1        1.0  0.6617224337988135  0.4069165932190555  0.616503295664804  1.0000
  C   C2        1.0  0.585723660522466  0.34979110928394785  0.6033038970849471  1.0000
  C   C3        1.0  0.5272057471930868  0.38995298121937205  0.6781829462924123  1.0000
  C   C4        1.0  0.452645621840337  0.33494576822311606  0.6655980567456925  1.0000
  C   C5        1.0  0.390537410665025  0.377350789413321  0.7448977937545833  1.0000
  C   C6        1.0  0.31599567470033896  0.3958193972687487  0.6891542060621554  1.0000
  C   C7        1.0  0.2574777094544064  0.43579734266442904  0.7641411518453431  1.0000
  C   C8        1.0  0.1814979798242666  0.45487181118455444  0.7061828786811073  1.0000
  N   N2        1.0  0.12042319200676051  0.4702013041485187  0.659584577258945  1.0000
  C   C9        1.0  0.2730093823412088  0.45754982166200153  0.8953800727399719  1.0000
  C   C10       1.0  0.3467665180802256  0.43947020139363624  0.9515111848049356  1.0000
  C   C11       1.0  0.40527292644565965  0.3996723101204711  0.8769818383017554  1.0000
  C   C12       1.0  0.4378918749129538  0.2390992639543168  0.5767015660897108  1.0000
  C   C13       1.0  0.49639814444941044  0.19921607238849992  0.5022224287373813  1.0000
  C   C14       1.0  0.5701735341247596  0.2543356602831355  0.5153571084563318  1.0000
  H   H1        1.0  0.5395698497633387  0.4651475090808026  0.7448020222677674  1.0000
  H   H2        1.0  0.303646679728746  0.3808492798648935  0.587160074569657  1.0000
  H   H3        1.0  0.22815665015306652  0.4884326012522662  0.9542011910672314  1.0000
  H   H4        1.0  0.35860221762982064  0.4559979871343587  0.05313236854358239  1.0000
  H   H5        1.0  0.4617545406353433  0.3846803292716463  0.9230718535869182  1.0000
  H   H6        1.0  0.381395123959417  0.19376353428025395  0.566047416827598  1.0000
  H   H7        1.0  0.4845481495632993  0.12513801383390133  0.43440554968259515  1.0000
  H   H8        1.0  0.6150260781750435  0.22258317765043145  0.4570468448453655  1.0000
  C   C15       1.0  0.9215198129394109  0.08014886477937866  0.6433111895141252  1.0000
  C   C16       1.0  0.8845146268704785  0.08662470690243307  0.5187820307908053  1.0000
  C   C17       1.0  0.8670131177889768  0.9732093483997931  0.4552300441919346  1.0000
  C   C18       1.0  0.8847431109991817  0.8514762250399437  0.5189006286929776  1.0000
  C   C19       1.0  0.9217233002418231  0.8428847619861339  0.6434066514975456  1.0000
  C   C20       1.0  0.9401742959078448  0.9578443328749702  0.7046849021542443  1.0000
  N   N3        1.0  0.8280809508614695  0.9835880466977688  0.3286224599649088  1.0000
  C   C21       1.0  0.8401442775559196  0.8994363131403895  0.22745545590911997  1.0000
  O   O1        1.0  0.8940067769386325  0.8200634934418999  0.23731095931557378  1.0000
  H   H9        1.0  0.9905939458820295  0.2751033623537227  0.878793100411392  1.0000
  H   H10       1.0  0.8696469614283838  0.18007776205199266  0.469984623316283  1.0000
  H   H11       1.0  0.8683373237536737  0.7633665518955839  0.47265259075044286  1.0000
  H   H12       1.0  0.9687102013106633  0.9519770404596032  0.800676489603507  1.0000
  H   H13       1.0  0.9348886088653836  0.5120234783567147  0.6920320565547506  1.0000
  H   H14       1.0  0.7925683040479409  0.06263912425657425  0.30469653474440883  1.0000
  H   H15       1.0  0.8037225777394646  0.9067166476840103  0.13922742175870106  1.0000
  C   C22       1.0  0.921621580570005  0.4615168154281337  0.26211083031735205  1.0000
  C   C23       1.0  0.8412262799046788  0.46741971006901695  0.2537184219001847  1.0000
  C   C24       1.0  0.8012288599745548  0.47035634918623326  0.13244061184198808  1.0000
  C   C25       1.0  0.8412262649634804  0.4674196246156248  0.018417426822991967  1.0000
  C   C26       1.0  0.9216215801101036  0.4615168086611796  0.024606996894032562  1.0000
  C   C27       1.0  0.9613991731828616  0.45859617337516445  0.1469662879367819  1.0000
  C   C28       1.0  0.7188119174563564  0.47640747226601743  0.12496626062270644  1.0000
  N   N4        1.0  0.6525756246042782  0.48127075694012444  0.1189592897478231  1.0000
  H   H16       1.0  0.9520736490565088  0.45928124587076624  0.592611926599786  1.0000
  H   H17       1.0  0.8095193967591361  0.46974773534388525  0.34126720128913157  1.0000
  H   H18       1.0  0.8095194271619054  0.4697476410510091  0.9251176672637644  1.0000
  H   H19       1.0  0.023397133190137254  0.45404409578656857  0.1525888680261822  1.0000
  H   H20       1.0  0.9520736232955486  0.45928103627190087  0.6996292241673707  1.0000
  Zn  Zn1       1.0  0.8375544413992717  0.4578480330439445  0.63649707677699  1.0000
  Zn  Zn2       1.0  0.005681353623559149  0.4651846169702014  0.6502195415302001  1.0000
  C   C29       1.0  0.9216184711822584  0.45634297880318586  0.8804780970631021  1.0000
  C   C30       1.0  0.9216191602184481  0.46669138996303317  0.40623879872407054  1.0000
  C   C31       1.0  0.9216809105781649  0.6987112438138368  0.6382147317280633  1.0000
  C   C32       1.0  0.9215566630362473  0.22432156212993215  0.6485022283980506  1.0000
  O   O2        1.0  0.985421633402941  0.47120655401136924  0.45981706469631045  1.0000
  O   O3        1.0  0.9854204339226551  0.4573951324650971  0.8373144904721603  1.0000
  O   O4        1.0  0.9854699944256412  0.653110534093909  0.6416850388775681  1.0000
  O   O5        1.0  0.98537201553211  0.27549115916940337  0.6554464142657024  1.0000
  O   O6        1.0  0.8578637221172576  0.6475414883425412  0.6312701993518552  1.0000
  O   O7        1.0  0.8578141620271021  0.45182764703397726  0.8268995819178733  1.0000
  O   O8        1.0  0.8578153615463804  0.46563902332610807  0.44940059523457276  1.0000
  O   O9        1.0  0.8577657436699309  0.269923619195094  0.6450300421395325  1.0000
