data_image0
_chemical_formula_structural       NC9NC5H8C6ClH5C6NH7Zn2C4O8
_chemical_formula_sum              "N3 C30 H20 Cl1 Zn2 O8"
_cell_length_a       17.807436237873137
_cell_length_b       10.30297070629231
_cell_length_c       9.274774538082514
_cell_angle_alpha    85.06361778746081
_cell_angle_beta     89.72824813723155
_cell_angle_gamma    88.39001192287228

_space_group_name_H-M_alt    "P 1"
_space_group_IT_number       1

loop_
  _space_group_symop_operation_xyz
  'x, y, z'

loop_
  _atom_site_type_symbol
  _atom_site_label
  _atom_site_symmetry_multiplicity
  _atom_site_fract_x
  _atom_site_fract_y
  _atom_site_fract_z
  _atom_site_occupancy
  N   N1        1.0  0.7023111571166337  0.4001242351415528  0.39661593844309073  1.0000
  C   C1        1.0  0.6416846685267978  0.3650436706501514  0.3843656275105014  1.0000
  C   C2        1.0  0.5662719800837511  0.3214073118481373  0.36912757083500214  1.0000
  C   C3        1.0  0.5478094416299293  0.25094757315692173  0.2524434760990637  1.0000
  C   C4        1.0  0.4745873210010107  0.20846930611026449  0.23755648457457124  1.0000
  C   C5        1.0  0.4187789056825536  0.23607365714835837  0.3393175257876977  1.0000
  C   C6        1.0  0.3409629569288752  0.19104435020391453  0.3235877140262762  1.0000
  C   C7        1.0  0.2788782732017921  0.2725439972778456  0.3524122886156493  1.0000
  C   C8        1.0  0.2055138961008855  0.22986263565149367  0.337540500074583  1.0000
  C   C9        1.0  0.1423804084467192  0.3140495415360507  0.3667694620518398  1.0000
  N   N2        1.0  0.0916340700987927  0.38172997977262746  0.3902687401715026  1.0000
  C   C10       1.0  0.1936505683159443  0.1054239547046274  0.29381596697206436  1.0000
  C   C11       1.0  0.2548778525694319  0.023910534271788464  0.2649820693513534  1.0000
  C   C12       1.0  0.328122081862618  0.0661992797778368  0.27962878756891385  1.0000
  C   C13       1.0  0.4379336234117632  0.30702565711887697  0.45624523900130853  1.0000
  C   C14       1.0  0.5112080652589126  0.3493149729557039  0.47095926402842103  1.0000
  H   H1        1.0  0.5899508959502189  0.22910637773240183  0.17275290304604263  1.0000
  H   H2        1.0  0.4613816937703121  0.15554057938825494  0.14541137518418346  1.0000
  H   H3        1.0  0.2874777883325985  0.3697212250282256  0.3845018402064415  1.0000
  H   H4        1.0  0.1371481014200623  0.07149289459211317  0.2820424252789562  1.0000
  H   H5        1.0  0.2455757497519137  0.927563803227004  0.23155856506541705  1.0000
  H   H6        1.0  0.3746955996225743  0.0006444632523898708  0.25846129038167054  1.0000
  H   H7        1.0  0.3965136249378767  0.3283164804597565  0.5373743188421949  1.0000
  H   H8        1.0  0.5249383601646742  0.40347314421394054  0.5619468696472527  1.0000
  C   C15       1.0  0.8969762088493484  0.009679456117142271  0.39344852956423804  1.0000
  C   C16       1.0  0.9746360596229597  0.0026494666638501307  0.4199808208194784  1.0000
  C   C17       1.0  0.013168804481789476  0.8822045304259657  0.4331453347038037  1.0000
  C   C18       1.0  0.9746360588073021  0.7675414985641701  0.41998075295724346  1.0000
  C   C19       1.0  0.8969762171293278  0.7721643968914607  0.39344861204656545  1.0000
  C   C20       1.0  0.8585248483481447  0.8938067933864238  0.38031176767483754  1.0000
  Cl  Cl1       1.0  0.11018446070784504  0.8749259163977745  0.4662903884470804  1.0000
  H   H9        1.0  0.8677231006561502  0.33963065479366117  0.38345347217475934  1.0000
  H   H10       1.0  0.005523269237699635  0.09037873450758704  0.43053323396342313  1.0000
  H   H11       1.0  0.005523239199536567  0.6751775439109268  0.4305331307620368  1.0000
  H   H12       1.0  0.7986312145902731  0.898300207678118  0.3598492230070147  1.0000
  H   H13       1.0  0.8677230978594175  0.4466026861151545  0.38345374470570115  1.0000
  C   C21       1.0  0.8956280264426447  0.39430614194589264  0.9696542098774517  1.0000
  C   C22       1.0  0.9488588202871713  0.46840494048822756  0.03552289566185518  1.0000
  C   C23       1.0  0.005459863689257993  0.5316500620439004  0.9538352093280693  1.0000
  C   C24       1.0  0.00928853121811124  0.5210736942865639  0.8047953746731742  1.0000
  C   C25       1.0  0.956298754964443  0.44982348218625456  0.7372201971037322  1.0000
  C   C26       1.0  0.8983244085751281  0.38753764041121985  0.8172428766727005  1.0000
  N   N3        1.0  0.05955307613891914  0.6055274955469943  0.0226950801697825  1.0000
  H   H14       1.0  0.783337341237174  0.14582118737389393  0.09740519941596815  1.0000
  H   H15       1.0  0.9475065678345946  0.4746262023792691  0.1515650711221206  1.0000
  H   H16       1.0  0.052988788783677965  0.5691692179003236  0.7405521566972522  1.0000
  H   H17       1.0  0.9596486407914971  0.4460539015253493  0.6209925339654441  1.0000
  H   H18       1.0  0.8203855128230924  0.2242356223315929  0.552431733553937  1.0000
  H   H19       1.0  0.05737158241649776  0.6137720119642214  0.13410056842516216  1.0000
  H   H20       1.0  0.10216903433210733  0.6526533075089185  0.9627582242249164  1.0000
  Zn  Zn1       1.0  0.8146613653241774  0.39481251954743146  0.39479262045993724  1.0000
  Zn  Zn2       1.0  0.9792838814371022  0.38703101782129745  0.3921039224868661  1.0000
  C   C27       1.0  0.8978130628760922  0.38364510842226407  0.6570304985504363  1.0000
  C   C28       1.0  0.8961339820086086  0.39819998093923537  0.12986615668240153  1.0000
  C   C29       1.0  0.8969540666073118  0.6280845896860638  0.38769773282347764  1.0000
  C   C30       1.0  0.8969929223479498  0.15375894191070527  0.39919900026785093  1.0000
  O   O1        1.0  0.9587771722457303  0.39654808558785115  0.18261440271561424  1.0000
  O   O2        1.0  0.9601145519413162  0.3793900479222396  0.6022411775332885  1.0000
  O   O3        1.0  0.9594200641934393  0.5767780482271463  0.38475307738978426  1.0000
  O   O4        1.0  0.9594716034748608  0.19916009808960067  0.4001023955694678  1.0000
  O   O5        1.0  0.8344735871088094  0.5826834419360467  0.3867941482872652  1.0000
  O   O6        1.0  0.8351680746085158  0.38529700205278794  0.6042821714822086  1.0000
  O   O7        1.0  0.833830689443114  0.40245500833021763  0.1846536615648673  1.0000
  O   O8        1.0  0.8345251210133815  0.2050670106822292  0.4021417626183017  1.0000
