data_image0
_chemical_formula_structural       NC9NC5H8C6BrH5C6FH5Zn2C4O8
_chemical_formula_sum              "N2 C30 H18 Br1 F1 Zn2 O8"
_cell_length_a       17.807436237873137
_cell_length_b       10.302969083221269
_cell_length_c       9.275646106892307
_cell_angle_alpha    84.95236398800574
_cell_angle_beta     89.39821068290672
_cell_angle_gamma    88.39001038669201

_space_group_name_H-M_alt    "P 1"
_space_group_IT_number       1

loop_
  _space_group_symop_operation_xyz
  'x, y, z'

loop_
  _atom_site_type_symbol
  _atom_site_label
  _atom_site_symmetry_multiplicity
  _atom_site_fract_x
  _atom_site_fract_y
  _atom_site_fract_z
  _atom_site_occupancy
  N   N1        1.0  0.7070810976862569  0.4027100016883396  0.3964466724683313  1.0000
  C   C1        1.0  0.6464910534823036  0.3676491853940369  0.38419507525367735  1.0000
  C   C2        1.0  0.5711236978982046  0.3240373912049863  0.36895541858294445  1.0000
  C   C3        1.0  0.5530082879479675  0.25376579880698613  0.25225903194317567  1.0000
  C   C4        1.0  0.479830455765185  0.21131153046234252  0.23737047726205396  1.0000
  C   C5        1.0  0.4237193076769487  0.23875179199658825  0.339142243477498  1.0000
  C   C6        1.0  0.3459501547417647  0.19374784240483978  0.3234107800842623  1.0000
  C   C7        1.0  0.2837797186011528  0.27520102244941214  0.3522383814112444  1.0000
  C   C8        1.0  0.2104595847215358  0.23254363497500052  0.3373650313473484  1.0000
  C   C9        1.0  0.147239141588148  0.31668342219518353  0.3665970622904282  1.0000
  N   N2        1.0  0.0964228934367082  0.38432597832643345  0.390098807774381  1.0000
  C   C10       1.0  0.1987263363790493  0.10817544059088458  0.29363590705345  1.0000
  C   C11       1.0  0.2600394007816716  0.026708502218860453  0.2647989817142473  1.0000
  C   C12       1.0  0.3332400564287192  0.06897363644201415  0.27944723778397496  1.0000
  C   C13       1.0  0.4425261721464091  0.30951525291209125  0.4560822742060848  1.0000
  C   C14       1.0  0.5157568401141104  0.35178084893089623  0.4707978441817857  1.0000
  H   H1        1.0  0.5953868167710037  0.23205310425626924  0.17256006001659263  1.0000
  H   H2        1.0  0.4668989549207457  0.15853138281378354  0.14521566057655066  1.0000
  H   H3        1.0  0.2922837679947414  0.3723265209196538  0.38433130160025053  1.0000
  H   H4        1.0  0.142258895495027  0.07426336005962297  0.28186112917182493  1.0000
  H   H5        1.0  0.2508367321099447  0.9304156516536946  0.2313719680582622  1.0000
  H   H6        1.0  0.3798765470666921  0.003452942283421079  0.25827751876119365  1.0000
  H   H7        1.0  0.4008648197155309  0.33067525562926825  0.5372199046734749  1.0000
  H   H8        1.0  0.5292164521123857  0.4057923078513652  0.5617950348671896  1.0000
  C   C15       1.0  0.9017555780613292  0.012270263760056688  0.3932789889802202  1.0000
  C   C16       1.0  0.9796488034106124  0.005445289374779172  0.4163332907872743  1.0000
  C   C17       1.0  0.01828803568707471  0.885121885875323  0.42776927818480237  1.0000
  C   C18       1.0  0.979648862340901  0.7703629296198072  0.4163330159593943  1.0000
  C   C19       1.0  0.9017555895921806  0.7747552814905692  0.39327889310468933  1.0000
  C   C20       1.0  0.863185121444454  0.8962900422182161  0.38186313542784767  1.0000
  Br  Br1       1.0  0.12423623063897726  0.8774930973758034  0.45912748813750404  1.0000
  H   H9        1.0  0.8724373204428815  0.34214079087778426  0.38460091868738666  1.0000
  H   H10       1.0  0.010656623568235934  0.09321188796204916  0.4255109312597769  1.0000
  H   H11       1.0  0.01065671183579342  0.6781309558906294  0.42551027966759936  1.0000
  H   H12       1.0  0.8031108704364884  0.9006156283875238  0.3640829641573122  1.0000
  H   H13       1.0  0.8724371057317301  0.4491067883471713  0.38460305496391656  1.0000
  C   C21       1.0  0.9016681499678135  0.3975804022783411  0.9694399279816457  1.0000
  C   C22       1.0  0.9704558270904929  0.40790134177365656  0.040379267822798326  1.0000
  C   C23       1.0  0.038312292392705505  0.4060759157932896  0.9638271210601546  1.0000
  C   C24       1.0  0.03857279194773611  0.39376718667354327  0.8154466206947419  1.0000
  C   C25       1.0  0.9709623596015308  0.38555535410614183  0.7425561278424322  1.0000
  C   C26       1.0  0.9018429898084448  0.3894451793872151  0.8171179612521349  1.0000
  F   F1        1.0  0.10410258905997538  0.4146906587210091  0.034189691338003314  1.0000
  H   H14       1.0  0.7274644730106193  0.3003303744105743  0.08543305581940297  1.0000
  H   H15       1.0  0.9717896023921103  0.4142948681694354  0.15628477316829925  1.0000
  H   H16       1.0  0.0912549087337442  0.39182276255280213  0.7562723312530544  1.0000
  H   H17       1.0  0.9726755218034621  0.3792689325038321  0.6265952714245939  1.0000
  H   H18       1.0  0.7839069433372319  0.32934193897730624  0.5441950388349737  1.0000
  Zn  Zn1       1.0  0.81943673022311  0.3974012253709889  0.39462316305061385  1.0000
  Zn  Zn2       1.0  0.9840672451502647  0.3896240579647505  0.3919341827768503  1.0000
  C   C27       1.0  0.901808287619366  0.3858109421025766  0.6568886919479036  1.0000
  C   C28       1.0  0.901697485543363  0.4012158930451324  0.12966876617719736  1.0000
  C   C29       1.0  0.9017505348555285  0.6306847760570065  0.38752749190597346  1.0000
  C   C30       1.0  0.9017551821461611  0.15634050120015686  0.3990300440860646  1.0000
  O   O1        1.0  0.9641837532661233  0.39947893851972505  0.18242257398462036  1.0000
  O   O2        1.0  0.9642727713497773  0.38164423109482715  0.6020935948531998  1.0000
  O   O3        1.0  0.9642252933601311  0.5793829742485912  0.3845825338004174  1.0000
  O   O4        1.0  0.964231175056202  0.20174020834562834  0.3999335277364382  1.0000
  O   O5        1.0  0.839272744136856  0.5852850776455629  0.38662381900105114  1.0000
  O   O6        1.0  0.8393202221072252  0.3875478950377962  0.6041348030969225  1.0000
  O   O7        1.0  0.8392312037155624  0.4053825738724315  0.1844620469457403  1.0000
  O   O8        1.0  0.8392786255248919  0.2076438333741193  0.40197310890854854  1.0000
