data_image0
_chemical_formula_structural       NC8NC6H8C7NH5C6NCOH7Zn2C4O8
_chemical_formula_sum              "N4 C32 H20 O9 Zn2"
_cell_length_a       17.457602349358154
_cell_length_b       10.302819778424748
_cell_length_c       10.29962270195845
_cell_angle_alpha    85.57967011420672
_cell_angle_beta     92.8939802036364
_cell_angle_gamma    91.68806980205999

_space_group_name_H-M_alt    "P 1"
_space_group_IT_number       1

loop_
  _space_group_symop_operation_xyz
  'x, y, z'

loop_
  _atom_site_type_symbol
  _atom_site_label
  _atom_site_symmetry_multiplicity
  _atom_site_fract_x
  _atom_site_fract_y
  _atom_site_fract_z
  _atom_site_occupancy
  N   N1        1.0  0.7221620183651932  0.4519178804240278  0.6265267455865722  1.0000
  C   C1        1.0  0.6610820529097581  0.40600330578362254  0.6159111793280658  1.0000
  C   C2        1.0  0.5850959946769617  0.3488912907663877  0.6027149567182708  1.0000
  C   C3        1.0  0.5265817056940318  0.389066022173574  0.6776115036564896  1.0000
  C   C4        1.0  0.4520338478500543  0.3340718212227607  0.6650297099270805  1.0000
  C   C5        1.0  0.3899295091265571  0.3764905012985966  0.7443479936941328  1.0000
  C   C6        1.0  0.3153721690670485  0.39493432807801  0.6885853294525388  1.0000
  C   C7        1.0  0.256857897909778  0.4349252275027129  0.7635898284269906  1.0000
  C   C8        1.0  0.1808619783627763  0.4539739706113435  0.7056117368035442  1.0000
  N   N2        1.0  0.11977417558320562  0.46928278240154375  0.6589975021834145  1.0000
  C   C9        1.0  0.27240890146843927  0.4567155382007668  0.8948655015566749  1.0000
  C   C10       1.0  0.3461816117262274  0.43866070860653283  0.9510157580685379  1.0000
  C   C11       1.0  0.4046843655982191  0.39884996244877313  0.8764689734847404  1.0000
  C   C12       1.0  0.43728865047997534  0.23822519491238126  0.5761184712231364  1.0000
  C   C13       1.0  0.4957912979000673  0.19832919237285496  0.5016219215623148  1.0000
  C   C14       1.0  0.5695544953774185  0.2534359200266272  0.5147536567694875  1.0000
  H   H1        1.0  0.5389385027639  0.4642595827863294  0.7442412106240806  1.0000
  H   H2        1.0  0.3030076346427806  0.37993420079559503  0.5865623933847923  1.0000
  H   H3        1.0  0.22755919417521503  0.48760862903557145  0.9537004485501106  1.0000
  H   H4        1.0  0.35803236366297575  0.4552178875098558  0.05266543935544532  1.0000
  H   H5        1.0  0.4611788073430815  0.38387838364009785  0.9225747268678621  1.0000
  H   H6        1.0  0.3808019561347198  0.19290009350438808  0.5654667886584694  1.0000
  H   H7        1.0  0.48394808119872534  0.12425134231030532  0.4337939115838638  1.0000
  H   H8        1.0  0.6144043444380515  0.22167357349201544  0.4564298269384137  1.0000
  C   C15       1.0  0.9209717589400939  0.07934744654964065  0.6427680127482227  1.0000
  C   C16       1.0  0.8762109563854977  0.06753136171086882  0.7528333937432887  1.0000
  C   C17       1.0  0.8539420160544676  0.9445501670279622  0.8075919602975303  1.0000
  C   C18       1.0  0.8762110183075633  0.8322303546059319  0.7528334030559853  1.0000
  C   C19       1.0  0.9209717715937606  0.8418434742973525  0.6427680523801089  1.0000
  C   C20       1.0  0.943118321902789  0.9658968363613031  0.5883104490199484  1.0000
  C   C21       1.0  0.8080557058486163  0.933566059819017  0.9204251568736344  1.0000
  N   N3        1.0  0.7711781274783609  0.9247384620873037  0.011106032399906485  1.0000
  H   H9        1.0  0.9379260587409849  0.4111455223351099  0.601077368885816  1.0000
  H   H10       1.0  0.8585577948040154  0.1537299016781113  0.7962417437880756  1.0000
  H   H11       1.0  0.8585578905527149  0.7375803017251444  0.7962417207559593  1.0000
  H   H12       1.0  0.9776362711662119  0.9741595393247229  0.5034319926131885  1.0000
  H   H13       1.0  0.9379261291437415  0.518162444855629  0.6010774733368995  1.0000
  C   C22       1.0  0.9208987570247469  0.46046573176129524  0.261405291637161  1.0000
  C   C23       1.0  0.8405075736820348  0.4669703820262501  0.2527466566437069  1.0000
  C   C24       1.0  0.8001476334796285  0.4723794301343851  0.13143342474676256  1.0000
  C   C25       1.0  0.84067721593094  0.4672560601275155  0.017588317865101066  1.0000
  C   C26       1.0  0.9210447697579266  0.4607252314177741  0.02413074155542949  1.0000
  C   C27       1.0  0.9607200084379578  0.4578890421041084  0.1465073738473348  1.0000
  N   N4        1.0  0.7177837775713536  0.4770154998515548  0.12658986636555114  1.0000
  C   C28       1.0  0.6727738224517161  0.5459117104182833  0.024840637903255303  1.0000
  O   O1        1.0  0.7036798252104121  0.62230845152487  0.9402546127950244  1.0000
  H   H14       1.0  0.07248214303567946  0.4468036535330795  0.48509231671888164  1.0000
  H   H15       1.0  0.8088290575337189  0.46896523448081884  0.34031531175670415  1.0000
  H   H16       1.0  0.8095382434228693  0.46565105787384353  0.9241931458875392  1.0000
  H   H17       1.0  0.022693725336754955  0.45289151361415625  0.15230489760602217  1.0000
  H   H18       1.0  0.9518166381845921  0.45624604236172495  0.6993409757439717  1.0000
  H   H19       1.0  0.6886515340366718  0.4353761523675992  0.20630811175113983  1.0000
  H   H20       1.0  0.6109003412766884  0.535112239991441  0.02268261104051339  1.0000
  Zn  Zn1       1.0  0.8369042995106803  0.456925536939204  0.6359046028804891  1.0000
  Zn  Zn2       1.0  0.005031882223080819  0.46426448491952454  0.649630277244277  1.0000
  C   C29       1.0  0.9210154582995083  0.4555040024540329  0.8799591947131205  1.0000
  C   C30       1.0  0.9209225594066508  0.4656877377107975  0.40557596276008323  1.0000
  C   C31       1.0  0.9209668272474457  0.6977135986842167  0.6375926440948914  1.0000
  C   C32       1.0  0.9209711331017549  0.22347657917145547  0.6479425779321037  1.0000
  O   O2        1.0  0.9847340891384758  0.47021971910259697  0.4591697788930018  1.0000
  O   O3        1.0  0.984808873567362  0.4565411332156166  0.8367824739917755  1.0000
  O   O4        1.0  0.9847687435340495  0.6521284082449645  0.6410696993656633  1.0000
  O   O5        1.0  0.9847741617825927  0.27463245082323273  0.6548824514623792  1.0000
  O   O6        1.0  0.8571619625774748  0.6465575685324843  0.6306524239716567  1.0000
  O   O7        1.0  0.8572020925940519  0.4509718533092826  0.8263651293532479  1.0000
  O   O8        1.0  0.8571273079172872  0.464650393425047  0.4487508728832037  1.0000
  O   O9        1.0  0.8571673805769059  0.26906311589268683  0.6444636428185864  1.0000
