data_image0
_chemical_formula_structural       NC9NC5H8C8H10C9H8Zn2C4O8
_chemical_formula_sum              "N2 C35 H26 Zn2 O8"
_cell_length_a       17.807436237873137
_cell_length_b       9.275653711864159
_cell_length_c       9.275155815604963
_cell_angle_alpha    86.23881260367573
_cell_angle_beta     89.76311116066846
_cell_angle_gamma    87.8440138982238

_space_group_name_H-M_alt    "P 1"
_space_group_IT_number       1

loop_
  _space_group_symop_operation_xyz
  'x, y, z'

loop_
  _atom_site_type_symbol
  _atom_site_label
  _atom_site_symmetry_multiplicity
  _atom_site_fract_x
  _atom_site_fract_y
  _atom_site_fract_z
  _atom_site_occupancy
  N   N1        1.0  0.6946129542653883  0.5275987239186413  0.40382976061867737  1.0000
  C   C1        1.0  0.6341803612822737  0.4884172507437623  0.3914681649850653  1.0000
  C   C2        1.0  0.5590088576206182  0.43967981284411617  0.37609168242246516  1.0000
  C   C3        1.0  0.5409375430188508  0.35939026392379625  0.2593060735814505  1.0000
  C   C4        1.0  0.4679502072548517  0.3119453754396473  0.24428440062153678  1.0000
  C   C5        1.0  0.41198743550120437  0.3443704844967268  0.3460109514715297  1.0000
  C   C6        1.0  0.3344203706679827  0.294077170961379  0.33013830209098205  1.0000
  C   C7        1.0  0.2718852189617388  0.3851104112019983  0.3592209318864483  1.0000
  C   C8        1.0  0.1987567475934046  0.33744017649983626  0.34421370352804814  1.0000
  C   C9        1.0  0.1351579494083964  0.4314655762299071  0.37370995295608056  1.0000
  N   N2        1.0  0.0840375336157936  0.5070555027944519  0.39742411004919864  1.0000
  C   C10       1.0  0.1875812165174978  0.19844997689198318  0.3000947761012265  1.0000
  C   C11       1.0  0.2492590449649466  0.10740127510462893  0.27100278556174695  1.0000
  C   C12       1.0  0.3222695402770561  0.15463147503059393  0.2857838146696219  1.0000
  C   C13       1.0  0.4307482071874253  0.42521108072652214  0.4630416453464381  1.0000
  C   C14       1.0  0.5037889106023361  0.47244307870115354  0.47788989415719874  1.0000
  H   H1        1.0  0.5832011117199916  0.33374904942091277  0.1796416968637784  1.0000
  H   H2        1.0  0.4550385508518277  0.25155484747209256  0.15206898792915746  1.0000
  H   H3        1.0  0.2799476565130741  0.49361570632714247  0.3916211998722676  1.0000
  H   H4        1.0  0.1312662902845776  0.16055368861454378  0.28821349638942295  1.0000
  H   H5        1.0  0.240489460877098  0.999795464877157  0.23727335114656656  1.0000
  H   H6        1.0  0.3692053560831631  0.08144315518564538  0.264406075484819  1.0000
  H   H7        1.0  0.3892091047608489  0.45026579793970334  0.5441406222933072  1.0000
  H   H8        1.0  0.517218470066655  0.5341793187628294  0.5689538057083674  1.0000
  C   C15       1.0  0.8914334759428492  0.09381519809306527  0.39924730178564016  1.0000
  C   C16       1.0  0.8733857722447633  0.17706638436950173  0.27100269186384307  1.0000
  C   C17       1.0  0.8485808188815809  0.11208910331261945  0.1484471743612552  1.0000
  C   C18       1.0  0.842938190486345  0.9618327027193512  0.15314523264227664  1.0000
  C   C19       1.0  0.8617878741767558  0.8773278274406722  0.27859906158961056  1.0000
  C   C20       1.0  0.8872242761189361  0.940827657501908  0.4020188967795071  1.0000
  C   C21       1.0  0.8305401841119822  0.20264644914212138  0.011417105694354612  1.0000
  C   C22       1.0  0.9005325767254676  0.21999447817464834  0.9175171449608017  1.0000
  H   H9        1.0  0.96028511726165  0.3564471236342792  0.5978832850263665  1.0000
  H   H10       1.0  0.8769711889485645  0.2936624954144429  0.2670607429887635  1.0000
  H   H11       1.0  0.8246411138066418  0.9097430447332481  0.058908162402553144  1.0000
  H   H12       1.0  0.8583102072862002  0.7610325900738586  0.27777649119559933  1.0000
  H   H13       1.0  0.8950580549817722  0.6433537267651657  0.6395630061788999  1.0000
  H   H14       1.0  0.7865329467053562  0.15154790111111693  0.949468148354732  1.0000
  H   H15       1.0  0.8078177104205456  0.31122848588776564  0.03733691563122332  1.0000
  H   H16       1.0  0.9445132598140157  0.2743832084858877  0.976297434676813  1.0000
  H   H17       1.0  0.9229919444269115  0.11264781797763179  0.8874905234538342  1.0000
  H   H18       1.0  0.886037981373249  0.2869519632591122  0.817161616249074  1.0000
  C   C23       1.0  0.8879702055252192  0.5137486754380205  0.977412596879935  1.0000
  C   C24       1.0  0.8288374296912747  0.5871225555840194  0.04642434090821479  1.0000
  C   C25       1.0  0.7746901110017987  0.6698157896267913  0.966285019827335  1.0000
  C   C26       1.0  0.7786704554812812  0.6808599614633917  0.8156736657343946  1.0000
  C   C27       1.0  0.8362949492690859  0.6067909861744729  0.7449758942892637  1.0000
  C   C28       1.0  0.8906875388452359  0.520894171813542  0.8238535863650602  1.0000
  C   C29       1.0  0.7229874658089928  0.7670026960711713  0.7332577362884694  1.0000
  C   C30       1.0  0.6763629750942993  0.839135345298416  0.6642189610615952  1.0000
  C   C31       1.0  0.6197925358250942  0.92665609268287  0.5804405957015426  1.0000
  H   H19       1.0  0.06296210131038116  0.388189399467326  0.08712078245304578  1.0000
  H   H20       1.0  0.8254813642420546  0.5833028556236308  0.16325832766488624  1.0000
  H   H21       1.0  0.7300776824068608  0.7263613646129305  0.022004819561324718  1.0000
  H   H22       1.0  0.8376496311138428  0.6134993944824965  0.6278289521548817  1.0000
  H   H23       1.0  0.007478192347806223  0.43123647743485516  0.5480836576849404  1.0000
  H   H24       1.0  0.635041556460316  0.9299942723833963  0.4642039987569402  1.0000
  H   H25       1.0  0.5640828524792755  0.8782520299384058  0.5962193871965358  1.0000
  H   H26       1.0  0.6173374295633729  0.038117257842104735  0.6173410018687662  1.0000
  Zn  Zn1       1.0  0.8069925205207344  0.5216666162085517  0.40198955067192355  1.0000
  Zn  Zn2       1.0  0.9716580456209163  0.5129759545350385  0.39927612979589866  1.0000
  C   C32       1.0  0.8902007910011367  0.5137982515020032  0.6638393773613289  1.0000
  C   C33       1.0  0.8884515646941519  0.5208460452279389  0.13742642088516588  1.0000
  C   C34       1.0  0.8879976056121391  0.7806760226121339  0.3957519955555979  1.0000
  C   C35       1.0  0.890654702751677  0.253966545009368  0.40551387478383316  1.0000
  O   O1        1.0  0.9511028531094169  0.5199236347216099  0.19009877229597394  1.0000
  O   O2        1.0  0.9525268301108429  0.5081235593980904  0.6091071838576858  1.0000
  O   O3        1.0  0.9507468924658824  0.7236307918097684  0.39262474507525824  1.0000
  O   O4        1.0  0.9528827341670095  0.3044164146800634  0.40658110397745784  1.0000
  O   O5        1.0  0.825767775782347  0.7302261590307295  0.39468457740874663  1.0000
  O   O6        1.0  0.8275477045664852  0.5147206586946935  0.6111669450166202  1.0000
  O   O7        1.0  0.8261237223021012  0.5265206691310005  0.1921568005401093  1.0000
  O   O8        1.0  0.827903603754767  0.3110134396865243  0.4086392402409189  1.0000
