data_image0
_chemical_formula_structural       NC9NC5H8C6FH5C9H8Zn2C4O8
_chemical_formula_sum              "N2 C33 H21 F1 Zn2 O8"
_cell_length_a       17.807436237873137
_cell_length_b       9.275642734913903
_cell_length_c       9.275155815604963
_cell_angle_alpha    85.9664677228866
_cell_angle_beta     89.76311116066846
_cell_angle_gamma    88.99238798493903

_space_group_name_H-M_alt    "P 1"
_space_group_IT_number       1

loop_
  _space_group_symop_operation_xyz
  'x, y, z'

loop_
  _atom_site_type_symbol
  _atom_site_label
  _atom_site_symmetry_multiplicity
  _atom_site_fract_x
  _atom_site_fract_y
  _atom_site_fract_z
  _atom_site_occupancy
  N   N1        1.0  0.710573860495745  0.5272540446060663  0.3964826914698887  1.0000
  C   C1        1.0  0.6497318852517528  0.48808141213197365  0.3843095412625921  1.0000
  C   C2        1.0  0.5740511551394306  0.4393549710905533  0.3691674640583995  1.0000
  C   C3        1.0  0.5551409461725857  0.35908353828023953  0.2527680121698659  1.0000
  C   C4        1.0  0.4816578889836155  0.3116493550102888  0.23797452798164453  1.0000
  C   C5        1.0  0.4260339065449012  0.3440671478369177  0.3395451285060256  1.0000
  C   C6        1.0  0.3479413589073392  0.2937851822193607  0.3239143675523797  1.0000
  C   C7        1.0  0.286357355554767  0.3847978822001745  0.35255916802761056  1.0000
  C   C8        1.0  0.2127308082623388  0.3371384035581415  0.3377812122557944  1.0000
  C   C9        1.0  0.1501144215999809  0.4311425878933344  0.36682524140978345  1.0000
  N   N2        1.0  0.0997837968113673  0.5067154587458536  0.39017584463975274  1.0000
  C   C10       1.0  0.2001030571052391  0.19817956496526312  0.2943307657536647  1.0000
  C   C11       1.0  0.260829575651161  0.1071514069263757  0.2656766788975702  1.0000
  C   C12       1.0  0.33433354924421943  0.15437095007933577  0.28023055179005074  1.0000
  C   C13       1.0  0.4456393301386075  0.42488950362130007  0.45618701513644666  1.0000
  C   C14       1.0  0.5191735306211327  0.4721108444172244  0.47080809908399934  1.0000
  H   H1        1.0  0.5971366061527352  0.33344810932564806  0.17322695826797085  1.0000
  H   H2        1.0  0.4681152504129583  0.25127245324269065  0.14604956681816583  1.0000
  H   H3        1.0  0.2955534958343599  0.49327869476327635  0.3844375738949215  1.0000
  H   H4        1.0  0.1433921766899776  0.16029182740627346  0.28263175030151055  1.0000
  H   H5        1.0  0.2509356869799225  0.9995698763059219  0.23246478047935915  1.0000
  H   H6        1.0  0.3805046669055113  0.08119914406054951  0.25920481581025534  1.0000
  H   H7        1.0  0.4043620084963471  0.44993856762034135  0.5371654900581524  1.0000
  H   H8        1.0  0.5332481327417532  0.53383315463957  0.561575086830757  1.0000
  C   C15       1.0  0.9028620543625261  0.09356839540551443  0.3939865380977978  1.0000
  C   C16       1.0  0.8878959698361293  0.1765494808912269  0.26402975410156393  1.0000
  C   C17       1.0  0.8800155939247569  0.11057060666223428  0.1344027430294441  1.0000
  C   C18       1.0  0.8870375650334295  0.960893372289197  0.1324403491505004  1.0000
  C   C19       1.0  0.9006396336562607  0.8763774108386658  0.26040312058594384  1.0000
  C   C20       1.0  0.9075027732950226  0.9403897687296245  0.3926843895262284  1.0000
  F   F1        1.0  0.8664219721187753  0.19231355795813632  0.00995912367039331  1.0000
  H   H9        1.0  0.9815301024767106  0.17133590934964715  0.7146328178026424  1.0000
  H   H10       1.0  0.8840552907627114  0.29336164352702565  0.26224748338545134  1.0000
  H   H11       1.0  0.8812216014688646  0.9098706858323009  0.03173839356549757  1.0000
  H   H12       1.0  0.9040181287203707  0.7600050833911876  0.2563873835331367  1.0000
  H   H13       1.0  0.9574733450822099  0.6422113340552241  0.6104450302361972  1.0000
  C   C21       1.0  0.9037864014192659  0.513407121177277  0.970132140292618  1.0000
  C   C22       1.0  0.84542026253155  0.5867644456282664  0.03879098865352981  1.0000
  C   C23       1.0  0.7921369527822333  0.6694390212062087  0.9582539499658362  1.0000
  C   C24       1.0  0.7962326907798666  0.6804807010941727  0.8075894783277544  1.0000
  C   C25       1.0  0.8530832850149588  0.6064284383378624  0.7372479456478884  1.0000
  C   C26       1.0  0.9065783934803728  0.5205510052807139  0.8165387631242815  1.0000
  C   C27       1.0  0.7414497516823617  0.766603998910024  0.7247592407144299  1.0000
  C   C28       1.0  0.6955789290824922  0.8387203725070513  0.655373539587802  1.0000
  C   C29       1.0  0.6399229383660004  0.9262213721720476  0.5711742384329495  1.0000
  H   H14       1.0  0.07746640829097107  0.3878761757388427  0.08044421003267943  1.0000
  H   H15       1.0  0.8420242874699813  0.5829456075248145  0.1556433464649145  1.0000
  H   H16       1.0  0.7481153328898453  0.7259718375472857  0.013701790681416526  1.0000
  H   H17       1.0  0.854508058745944  0.6131353329960458  0.6200687390588788  1.0000
  H   H18       1.0  0.022432270831980183  0.43091354079092503  0.5412000480017585  1.0000
  H   H19       1.0  0.6552068375150268  0.9295587986633267  0.4549215863315146  1.0000
  H   H20       1.0  0.5837075117942049  0.8778282310647985  0.5871858319004106  1.0000
  H   H21       1.0  0.6386324188361068  0.037657387822327415  0.6075385660639672  1.0000
  Zn  Zn1       1.0  0.8228914459354315  0.5213232753854482  0.3946710123178141  1.0000
  Zn  Zn2       1.0  0.9874661678463472  0.5126345746269612  0.39199938965179304  1.0000
  C   C30       1.0  0.906017504883904  0.5134566860551781  0.6565586823352358  1.0000
  C   C31       1.0  0.9043419164852445  0.5205028895541397  0.13011182911181862  1.0000
  C   C32       1.0  0.9066027553668145  0.7802742402737604  0.38718773737386747  1.0000
  C   C33       1.0  0.903756600604509  0.2536836066172641  0.3994828544823641  1.0000
  O   O1        1.0  0.9669835672205571  0.5195806871756485  0.18278861690612658  1.0000
  O   O2        1.0  0.9682842527496867  0.5077832743588373  0.6018537815719132  1.0000
  O   O3        1.0  0.9687560129325845  0.723241880856158  0.38433484903376236  1.0000
  O   O4        1.0  0.966511750579539  0.3041220930456685  0.4003074422838391  1.0000
  O   O5        1.0  0.8438458070409476  0.729835759933273  0.3863629605898793  1.0000
  O   O6        1.0  0.8433740560945829  0.5143788851207785  0.6038818136229638  1.0000
  O   O7        1.0  0.8420733646245301  0.526176233065017  0.18481491635445746  1.0000
  O   O8        1.0  0.8416015482803403  0.31071762953422977  0.40233384979671927  1.0000
