data_image0
_chemical_formula_structural       NC8NC6H8C7H8C6H6Zn2C4O8
_chemical_formula_sum              "N2 C31 H22 Zn2 O8"
_cell_length_a       17.457602349358154
_cell_length_b       9.274341958901593
_cell_length_c       10.681121600428288
_cell_angle_alpha    85.52848388196088
_cell_angle_beta     92.87590736930572
_cell_angle_gamma    91.07026823974832

_space_group_name_H-M_alt    "P 1"
_space_group_IT_number       1

loop_
  _space_group_symop_operation_xyz
  'x, y, z'

loop_
  _atom_site_type_symbol
  _atom_site_label
  _atom_site_symmetry_multiplicity
  _atom_site_fract_x
  _atom_site_fract_y
  _atom_site_fract_z
  _atom_site_occupancy
  N   N1        1.0  0.7131357161623418  0.6131631649079636  0.6740420168265118  1.0000
  C   C1        1.0  0.6523514248969456  0.5621698891658944  0.6638538093270427  1.0000
  C   C2        1.0  0.5767331469923809  0.49874059911193225  0.6511888742886074  1.0000
  C   C3        1.0  0.5179477264885322  0.5433343464828198  0.723368809570955  1.0000
  C   C4        1.0  0.4437539873505459  0.48225707891081626  0.7112941357349163  1.0000
  C   C5        1.0  0.381363327996521  0.5293415077992889  0.787735559274539  1.0000
  C   C6        1.0  0.3066985794125676  0.5498481234261501  0.733944617046449  1.0000
  C   C7        1.0  0.2479143320677517  0.5942376479498095  0.8062288431139879  1.0000
  C   C8        1.0  0.1718075544100497  0.6154169808252226  0.75030094370766  1.0000
  N   N2        1.0  0.11063066247175762  0.6324380807272103  0.705335064946677  1.0000
  C   C9        1.0  0.2633011159755804  0.618390529047153  0.932794107962118  1.0000
  C   C10       1.0  0.33717867340096025  0.5983158258784234  0.9869583933721306  1.0000
  C   C11       1.0  0.395950164572037  0.5541262245195826  0.9151153484702188  1.0000
  C   C12       1.0  0.429638645919327  0.3758338911729542  0.6256585063170226  1.0000
  C   C13       1.0  0.48841056641926583  0.33154957662777385  0.5538639922898729  1.0000
  C   C14       1.0  0.5618188213751912  0.3927516197382426  0.5664688523607344  1.0000
  H   H1        1.0  0.5298109803881842  0.6268266072236572  0.7875402468522763  1.0000
  H   H2        1.0  0.2944492976643427  0.533226041358223  0.6355804128619245  1.0000
  H   H3        1.0  0.2182426820696844  0.6526812333839767  0.9894957228152992  1.0000
  H   H4        1.0  0.3489042845887098  0.6166674651553625  0.08496103246568987  1.0000
  H   H5        1.0  0.4525316348285792  0.5374798811889576  0.9595905476149993  1.0000
  H   H6        1.0  0.37344386239470434  0.3254953565954064  0.6154348519347992  1.0000
  H   H7        1.0  0.4770539837706195  0.24929698761136598  0.4885358661608661  1.0000
  H   H8        1.0  0.6068828599557486  0.357495240562953  0.5102610186713434  1.0000
  C   C15       1.0  0.9143253019846915  0.19934330083885765  0.6900953374713188  1.0000
  C   C16       1.0  0.9233917771739363  0.28312780893379297  0.57614578122041  1.0000
  C   C17       1.0  0.9248275908805358  0.21824322002633378  0.462811128369893  1.0000
  C   C18       1.0  0.9163896496765372  0.06820378499273372  0.4606344444403241  1.0000
  C   C19       1.0  0.9097124296781071  0.9829272564156496  0.5738454606319068  1.0000
  C   C20       1.0  0.9094484523836275  0.04624715415701597  0.6892931895595118  1.0000
  C   C21       1.0  0.9196301867325049  0.9983694673258702  0.3389756939104458  1.0000
  H   H9        1.0  0.8505049756491854  0.27440634823859944  0.9752099644331551  1.0000
  H   H10       1.0  0.9277386603470865  0.3999463271817678  0.5743354860888294  1.0000
  H   H11       1.0  0.93171167175063  0.2854533053570849  0.37641109360385006  1.0000
  H   H12       1.0  0.9064697097097564  0.8662660753809516  0.5719914092087002  1.0000
  H   H13       1.0  0.8695315308111999  0.7467177907693378  0.883128428777433  1.0000
  H   H14       1.0  0.9799470585283246  0.9717473061829179  0.32321066641060425  1.0000
  H   H15       1.0  0.897264049311033  0.0721021798622985  0.2590638855435454  1.0000
  H   H16       1.0  0.8842441832074288  0.8974815541118406  0.34119904703339277  1.0000
  C   C22       1.0  0.9118869031873195  0.6227952177454803  0.3219490229494484  1.0000
  C   C23       1.0  0.8574502473984253  0.5399339566337178  0.2562805760435598  1.0000
  C   C24       1.0  0.8574501989785567  0.539934046774426  0.1253984322331172  1.0000
  C   C25       1.0  0.9118868424842095  0.6227952855087362  0.05743945381199134  1.0000
  C   C26       1.0  0.9662785693684101  0.7055878883131408  0.12310381613238341  1.0000
  C   C27       1.0  0.9662785596840565  0.7055878654769487  0.25399611404406475  1.0000
  H   H17       1.0  0.9669367879345018  0.7065906946586247  0.619500554974111  1.0000
  H   H18       1.0  0.8147802267370816  0.4749833841182549  0.305989227813676  1.0000
  H   H19       1.0  0.81478021032754  0.4749834512192579  0.07748519726276948  1.0000
  H   H20       1.0  0.008954161765543533  0.7705470171652291  0.07343993427794815  1.0000
  H   H21       1.0  0.008954123412330262  0.770546964740876  0.3018642987679352  1.0000
  H   H22       1.0  0.9669370302099806  0.706590203864963  0.7575715485820882  1.0000
  Zn  Zn1       1.0  0.8278441936039237  0.6187216221928344  0.6830797488095925  1.0000
  Zn  Zn2       1.0  0.995922238861237  0.6268678005103012  0.6963075968625037  1.0000
  C   C28       1.0  0.9119182435024287  0.617050509426341  0.9184213377925072  1.0000
  C   C29       1.0  0.9118500138925282  0.6285408216934179  0.46096627351686115  1.0000
  C   C30       1.0  0.9103663476377931  0.8861641206814084  0.6844541805724826  1.0000
  C   C31       1.0  0.9134018623803439  0.35942547515823975  0.694933494629357  1.0000
  O   O1        1.0  0.9756224119636416  0.633554240059518  0.5126416381028946  1.0000
  O   O2        1.0  0.9757131989846787  0.6182187640669956  0.8767852443463697  1.0000
  O   O3        1.0  0.9744591635986886  0.83553136688767  0.6878550404429249  1.0000
  O   O4        1.0  0.9768763899365839  0.416241644774608  0.70157174358666  1.0000
  O   O5        1.0  0.8468899851717797  0.829347775150207  0.6778155975648323  1.0000
  O   O6        1.0  0.8481440105777932  0.6120369048313219  0.8667457330552024  1.0000
  O   O7        1.0  0.8480532238972017  0.6273723305757457  0.5026006212407599  1.0000
  O   O8        1.0  0.849307201926395  0.41005972497675036  0.6915308206236017  1.0000
