data_image0
_chemical_formula_structural       NC9NC5H8C6ClH5C6FH5Zn2C4O8
_chemical_formula_sum              "N2 C30 H18 Cl1 F1 Zn2 O8"
_cell_length_a       17.807436237873137
_cell_length_b       10.30297070629231
_cell_length_c       9.275646106892307
_cell_angle_alpha    84.95237181000358
_cell_angle_beta     89.39821068290672
_cell_angle_gamma    88.39001192287228

_space_group_name_H-M_alt    "P 1"
_space_group_IT_number       1

loop_
  _space_group_symop_operation_xyz
  'x, y, z'

loop_
  _atom_site_type_symbol
  _atom_site_label
  _atom_site_symmetry_multiplicity
  _atom_site_fract_x
  _atom_site_fract_y
  _atom_site_fract_z
  _atom_site_occupancy
  N   N1        1.0  0.7070811185617094  0.40270976281112625  0.39644688567877573  1.0000
  C   C1        1.0  0.646491073835973  0.36764895248757345  0.3841952831349147  1.0000
  C   C2        1.0  0.5711237176028334  0.32403716572547747  0.3689556198352346  1.0000
  C   C3        1.0  0.5530083066067982  0.2537655852945142  0.2522592225142577  1.0000
  C   C4        1.0  0.4798304737922017  0.21131132417970222  0.23737066138013185  1.0000
  C   C5        1.0  0.4237193261123375  0.23875158104095506  0.3391424317664673  1.0000
  C   C6        1.0  0.3459501725073943  0.19374763911324155  0.32341096153267834  1.0000
  C   C7        1.0  0.2837797375789874  0.2752008052865875  0.352238575240458  1.0000
  C   C8        1.0  0.2104596030645333  0.2325434250765981  0.3373652186926841  1.0000
  C   C9        1.0  0.1472391611833331  0.31668319796803357  0.3665972624249232  1.0000
  N   N2        1.0  0.0964229140385654  0.3843257425799631  0.3900990181904731  1.0000
  C   C10       1.0  0.1987263528711708  0.10817525187200427  0.2936360754949514  1.0000
  C   C11       1.0  0.2600394160613834  0.02670832737355  0.26479913777285957  1.0000
  C   C12       1.0  0.3332400723374305  0.06897345439908098  0.27944740026684234  1.0000
  C   C13       1.0  0.442526191634916  0.3095150299056577  0.45608247325102513  1.0000
  C   C14       1.0  0.5157568602316235  0.3517806187267618  0.47079804965105243  1.0000
  H   H1        1.0  0.5953868351067011  0.23205289444140242  0.17256024728736796  1.0000
  H   H2        1.0  0.46689897216227605  0.15853118551944068  0.1452158366721017  1.0000
  H   H3        1.0  0.2922837884180201  0.3723262872166544  0.38433151019243783  1.0000
  H   H4        1.0  0.1422589114824612  0.07426317711586639  0.2818612924587256  1.0000
  H   H5        1.0  0.2508367459566042  0.930415493206761  0.23137210948046216  1.0000
  H   H6        1.0  0.3798765620003094  0.0034527713984615627  0.25827767128498524  1.0000
  H   H7        1.0  0.4008648395189458  0.33067502901935164  0.537220106934714  1.0000
  H   H8        1.0  0.5292164730337098  0.4057920684492444  0.5617952485461413  1.0000
  C   C15       1.0  0.901755593126168  0.012270091373533853  0.39327914284423526  1.0000
  C   C16       1.0  0.9793365120896342  0.005197317427853454  0.4198142315310378  1.0000
  C   C17       1.0  0.017830093391099977  0.8847311528294527  0.4329801334156036  1.0000
  C   C18       1.0  0.9793365114758621  0.7700893494376042  0.41981416366164814  1.0000
  C   C19       1.0  0.901755601160768  0.7747550320148461  0.3932792253352595  1.0000
  C   C20       1.0  0.8633433136219805  0.896418612252013  0.3801409958806252  1.0000
  Cl  Cl1       1.0  0.11474714527634822  0.8773990909370739  0.4661286818069148  1.0000
  H   H9        1.0  0.8725322195670678  0.3422374075218795  0.38328303162609423  1.0000
  H   H10       1.0  0.010192328973801512  0.09290956903897407  0.4303677572684377  1.0000
  H   H11       1.0  0.010192299242655078  0.6777083786087308  0.43036765405617006  1.0000
  H   H12       1.0  0.8035105545799515  0.9009450233014379  0.35967629374484233  1.0000
  H   H13       1.0  0.8725322159595736  0.4492094384039049  0.3832833041857704  1.0000
  C   C21       1.0  0.9016681707669263  0.39758016427468323  0.969440140412396  1.0000
  C   C22       1.0  0.9704558480432042  0.4079011020123742  0.040379481822321095  1.0000
  C   C23       1.0  0.038312313318250135  0.40607567634287167  0.963827334782215  1.0000
  C   C24       1.0  0.03857281269009971  0.39376694931926415  0.8154468325458875  1.0000
  C   C25       1.0  0.970962380221684  0.3855551181503123  0.7425563384453877  1.0000
  C   C26       1.0  0.9018430104864872  0.38944494276896036  0.817118172446341  1.0000
  F   F1        1.0  0.10410261011372701  0.41469041780352667  0.03418990636949504  1.0000
  H   H14       1.0  0.7274644923624347  0.3003301529682978  0.08543325346825181  1.0000
  H   H15       1.0  0.9717896234399716  0.4142946273193546  0.15628498813963088  1.0000
  H   H16       1.0  0.09125492944717029  0.39182252552965235  0.7562725428086505  1.0000
  H   H17       1.0  0.9726755423300593  0.3792686976185613  0.62659548107202  1.0000
  H   H18       1.0  0.7839069631208041  0.3293417125944491  0.5441952408935498  1.0000
  Zn  Zn1       1.0  0.8194367510195562  0.39740098739784435  0.3946233754541295  1.0000
  Zn  Zn2       1.0  0.9840672658309692  0.3896238213160337  0.39193439399824515  1.0000
  C   C27       1.0  0.901808308243323  0.38581070610322166  0.6568889025897091  1.0000
  C   C28       1.0  0.9016975063965799  0.40121565442236107  0.12966897916053877  1.0000
  C   C29       1.0  0.9017505591237538  0.630684498356388  0.38752773976834365  1.0000
  C   C30       1.0  0.9017551993550863  0.1563403042789142  0.3990302198486042  1.0000
  O   O1        1.0  0.9641837740934904  0.399478700192752  0.18242278670394652  1.0000
  O   O2        1.0  0.9642727919117241  0.38164399580505015  0.6020938048616695  1.0000
  O   O3        1.0  0.9642253168648713  0.5793827052845126  0.3845827738649674  1.0000
  O   O4        1.0  0.9642311929407761  0.20174000369295486  0.39993371039968517  1.0000
  O   O5        1.0  0.8392727677294328  0.5852848076763741  0.38662405996271465  1.0000
  O   O6        1.0  0.8393202427570319  0.3875476587426432  0.6041350140027426  1.0000
  O   O7        1.0  0.8392312246307888  0.40538233454008754  0.18446226056241266  1.0000
  O   O8        1.0  0.839278643497325  0.20764362771607647  0.4019732924691406  1.0000
