data_image0
_chemical_formula_structural       NC9NC5H8C7H8C6FH5Zn2C4O8
_chemical_formula_sum              "N2 C31 H21 F1 Zn2 O8"
_cell_length_a       17.807436237873137
_cell_length_b       9.274341958901593
_cell_length_c       9.275646106892307
_cell_angle_alpha    84.9204318453296
_cell_angle_beta     89.39821068290672
_cell_angle_gamma    87.76967926577302

_space_group_name_H-M_alt    "P 1"
_space_group_IT_number       1

loop_
  _space_group_symop_operation_xyz
  'x, y, z'

loop_
  _atom_site_type_symbol
  _atom_site_label
  _atom_site_symmetry_multiplicity
  _atom_site_fract_x
  _atom_site_fract_y
  _atom_site_fract_z
  _atom_site_occupancy
  N   N1        1.0  0.6982905677525821  0.5589172512184251  0.395703090468007  1.0000
  C   C1        1.0  0.6379202433444263  0.5199520258352726  0.38347007912775455  1.0000
  C   C2        1.0  0.5628261949883495  0.4714835767359813  0.3682535412378969  1.0000
  C   C3        1.0  0.5451511644007161  0.39338646647942266  0.25159440584120674  1.0000
  C   C4        1.0  0.47223938544079996  0.346204446510461  0.23672835633203082  1.0000
  C   C5        1.0  0.4159562741954503  0.3767004842033508  0.3384855763586425  1.0000
  C   C6        1.0  0.3384691528744586  0.3266848478229887  0.3227779697332487  1.0000
  C   C7        1.0  0.2757882643833872  0.417208738994542  0.351562392414269  1.0000
  C   C8        1.0  0.2027354566374934  0.36980098033756437  0.33671165519655566  1.0000
  C   C9        1.0  0.1389877246722859  0.46331066206330584  0.36589908331281285  1.0000
  N   N2        1.0  0.087747572853127  0.5384859638310229  0.38936497121598634  1.0000
  C   C10       1.0  0.1917816012801676  0.23158301404736448  0.29304845896379983  1.0000
  C   C11       1.0  0.2536052042541996  0.14104383240665808  0.2642547195639018  1.0000
  C   C12       1.0  0.3265409919477201  0.18801565608099735  0.27888057072241335  1.0000
  C   C13       1.0  0.4343196768512504  0.45534423796879087  0.45538809510274647  1.0000
  C   C14       1.0  0.5072854739714345  0.5023165748648277  0.47008125992243177  1.0000
  H   H1        1.0  0.5876657627542747  0.3692558236061214  0.17190694389803207  1.0000
  H   H2        1.0  0.4596386482376336  0.2875466465431411  0.14460151860705284  1.0000
  H   H3        1.0  0.2836836458409107  0.5251502343258694  0.3836038260006649  1.0000
  H   H4        1.0  0.1355266812726377  0.1938944488405432  0.28129165800730305  1.0000
  H   H5        1.0  0.2450059854646816  0.03402770951999168  0.23087875112065048  1.0000
  H   H6        1.0  0.373588088928118  0.11519850904939655  0.2577455844731682  1.0000
  H   H7        1.0  0.3925257185096294  0.47886064066922995  0.5365145085708081  1.0000
  H   H8        1.0  0.5204066059233494  0.5623428062121829  0.5610498189244397  1.0000
  C   C15       1.0  0.8954118633634649  0.12499773664663394  0.39274238059595734  1.0000
  C   C16       1.0  0.9042597853194355  0.20928611868552194  0.26044372420729833  1.0000
  C   C17       1.0  0.9056317225933956  0.14565269401712233  0.12966780401794775  1.0000
  C   C18       1.0  0.8973639447652082  0.9964747243490454  0.1280592436902812  1.0000
  C   C19       1.0  0.8908566790767275  0.9104670478658357  0.2592518183489687  1.0000
  C   C20       1.0  0.890633502555857  0.9723938839951556  0.39233813280952434  1.0000
  C   C21       1.0  0.900501511030571  0.9278153683908638  0.9874969389271437  1.0000
  H   H9        1.0  0.8329711876731911  0.20286923743377927  0.7281567835044009  1.0000
  H   H10       1.0  0.9085181068962553  0.32569688308150235  0.2578935628179002  1.0000
  H   H11       1.0  0.9123498953180427  0.21324388206637046  0.0293538965741742  1.0000
  H   H12       1.0  0.8876790407705901  0.7941494384207634  0.2574608812737178  1.0000
  H   H13       1.0  0.8515842571022558  0.674430452226667  0.6199993643490302  1.0000
  H   H14       1.0  0.9595923848143846  0.8954202676868869  0.962892535530091  1.0000
  H   H15       1.0  0.8785636487698418  0.004742949353639281  0.8977813726845425  1.0000
  H   H16       1.0  0.8658326041422816  0.8304006193783352  0.9938344046566483  1.0000
  C   C22       1.0  0.8929097663060745  0.5532164142653406  0.9686990652018204  1.0000
  C   C23       1.0  0.9616327639672345  0.5646867043528592  0.03963293387300504  1.0000
  C   C24       1.0  0.02950066888398073  0.5626579970304681  0.9630817547757378  1.0000
  C   C25       1.0  0.029838305018662803  0.5489785549916635  0.8147077793152651  1.0000
  C   C26       1.0  0.9622793347422418  0.5398522441804259  0.7418216395871791  1.0000
  C   C27       1.0  0.8931355881175019  0.5441752444638712  0.8163814109854468  1.0000
  F   F1        1.0  0.09523697851509527  0.5722320867201895  0.03343975834502122  1.0000
  H   H17       1.0  0.7193155376881618  0.4451365218128318  0.08474374565570342  1.0000
  H   H18       1.0  0.9629264721950475  0.5717922205197812  0.15553504998542023  1.0000
  H   H19       1.0  0.08253260715903221  0.5468175977718102  0.755534520620329  1.0000
  H   H20       1.0  0.964031892811604  0.5328657601085385  0.62586411562576  1.0000
  H   H21       1.0  0.7755761977856893  0.47737884448357604  0.5434903495286227  1.0000
  Zn  Zn1       1.0  0.8106794694306495  0.5530172840306131  0.3938823952531598  1.0000
  Zn  Zn2       1.0  0.9753587224596223  0.544374043146463  0.3911975376859358  1.0000
  C   C28       1.0  0.8931236610363203  0.5401362947228523  0.6561540682044646  1.0000
  C   C29       1.0  0.8929163189183812  0.5572567570775926  0.12892597620964685  1.0000
  C   C30       1.0  0.8915313282347276  0.8122795343547695  0.3866630595955032  1.0000
  C   C31       1.0  0.8945086053219524  0.2851117860668131  0.39841706351138884  1.0000
  O   O1        1.0  0.9554134718210648  0.5553263734837066  0.18168070478338572  1.0000
  O   O2        1.0  0.9556142567911659  0.5355055744292747  0.601361179899391  1.0000
  O   O3        1.0  0.9543275858545471  0.7552647103630201  0.38374529677362146  1.0000
  O   O4        1.0  0.9567000864767753  0.3355672519750583  0.3992964806013095  1.0000
  O   O5        1.0  0.8293380492165389  0.7618240781531833  0.38578345324640373  1.0000
  O   O6        1.0  0.8306247103542211  0.5420666765494657  0.6033992585880101  1.0000
  O   O7        1.0  0.8304239252552813  0.561887443829794  0.18371704820455848  1.0000
  O   O8        1.0  0.8317105399949425  0.3421283108472142  0.40133293223894584  1.0000
