data_image0
_chemical_formula_structural       NC9NC5H8C6H6C6NH7Zn2C4O8
_chemical_formula_sum              "N3 C30 H21 Zn2 O8"
_cell_length_a       17.807436237873137
_cell_length_b       10.681118228259551
_cell_length_c       9.274774538082514
_cell_angle_alpha    85.06361991993052
_cell_angle_beta     89.72824813723155
_cell_angle_gamma    88.3900060031841

_space_group_name_H-M_alt    "P 1"
_space_group_IT_number       1

loop_
  _space_group_symop_operation_xyz
  'x, y, z'

loop_
  _atom_site_type_symbol
  _atom_site_label
  _atom_site_symmetry_multiplicity
  _atom_site_fract_x
  _atom_site_fract_y
  _atom_site_fract_z
  _atom_site_occupancy
  N   N1        1.0  0.7023110733168653  0.350555126046757  0.3966159969231724  1.0000
  C   C1        1.0  0.6416845868266597  0.3167165315782554  0.3843656845253458  1.0000
  C   C2        1.0  0.5662719009953218  0.2746250467064737  0.36912762602725224  1.0000
  C   C3        1.0  0.5478093667586327  0.20665981984950443  0.25244352834836725  1.0000
  C   C4        1.0  0.47458724867210916  0.16568542638816575  0.23755653504965202  1.0000
  C   C5        1.0  0.4187788317014856  0.19231249051574517  0.33931757741575064  1.0000
  C   C6        1.0  0.3409628856428863  0.14887737255279987  0.32358776377355514  1.0000
  C   C7        1.0  0.2788781970379135  0.22749165788839432  0.35241234176698755  1.0000
  C   C8        1.0  0.2055138224915575  0.18632136007885935  0.3375405514432155  1.0000
  C   C9        1.0  0.1423803297986646  0.2675277662210327  0.3667695169367724  1.0000
  N   N2        1.0  0.0916339873999511  0.33281208921131245  0.3902687978832966  1.0000
  C   C10       1.0  0.1936505021544787  0.0662882271516978  0.2938160131431695  1.0000
  C   C11       1.0  0.2548777912866804  0.9876606560804453  0.2649821121178233  1.0000
  C   C12       1.0  0.3281220180488146  0.028452237701419136  0.2796288321016913  1.0000
  C   C13       1.0  0.4379335451840998  0.2607525509463573  0.4562452935928689  1.0000
  C   C14       1.0  0.5112079845001632  0.30154468270648116  0.4709593203863125  1.0000
  H   H1        1.0  0.589950822386154  0.1855918762347779  0.17275295438308835  1.0000
  H   H2        1.0  0.4613816246092829  0.11463055468793315  0.14541142344854885  1.0000
  H   H3        1.0  0.2874777063525009  0.3212284847922011  0.3845018974166572  1.0000
  H   H4        1.0  0.1371480372894272  0.03355844073919134  0.2820424700328361  1.0000
  H   H5        1.0  0.2455756942356745  0.8947249235043812  0.23155860380769866  1.0000
  H   H6        1.0  0.3746955397323359  0.9652182822613534  0.25846133217636824  1.0000
  H   H7        1.0  0.396513545435922  0.28128960750110954  0.5373743743230261  1.0000
  H   H8        1.0  0.5249382761644681  0.3537854724694949  0.5619469282672107  1.0000
  C   C15       1.0  0.8969761484183505  0.9739334059775384  0.3934485717363081  1.0000
  C   C16       1.0  0.9303191600228216  0.8970343505774521  0.5075217925508897  1.0000
  C   C17       1.0  0.9303191483275747  0.7661521134333295  0.5075217267574894  1.0000
  C   C18       1.0  0.8969761360040146  0.7094238100286272  0.39344863432786603  1.0000
  C   C19       1.0  0.863660725334021  0.7863094919439491  0.2794696798982075  1.0000
  C   C20       1.0  0.8636607369680859  0.9172017490698999  0.2794697382840723  1.0000
  H   H9        1.0  0.8632571376124707  0.28284220495488244  0.27809025961849576  1.0000
  H   H10       1.0  0.9564550299845908  0.9379398749182061  0.5969377212893212  1.0000
  H   H11       1.0  0.9564549375413619  0.7094358507281384  0.5969376973027385  1.0000
  H   H12       1.0  0.8375214475655394  0.7454497546169309  0.19004207612444568  1.0000
  H   H13       1.0  0.8375214278366953  0.9738741946386369  0.19004206471075236  1.0000
  H   H14       1.0  0.8632574129544451  0.42091284446745203  0.2780898647209262  1.0000
  C   C21       1.0  0.8956279429910989  0.3449430129270794  0.9696542681145246  1.0000
  C   C22       1.0  0.9488587324006889  0.4164184646716449  0.0355229569938702  1.0000
  C   C23       1.0  0.005459772017449405  0.4774244961155818  0.9538352733016926  1.0000
  C   C24       1.0  0.009288440179316293  0.46722256736446477  0.8047954382050464  1.0000
  C   C25       1.0  0.9562986681900919  0.3984948525168872  0.7372202576596414  1.0000
  C   C26       1.0  0.8983243255286879  0.3384141391215465  0.8172429346270684  1.0000
  N   N3        1.0  0.05955298004542331  0.5486864198881498  0.02269514722910282  1.0000
  H   H15       1.0  0.7833372726578667  0.10525526185491829  0.09740524727437583  1.0000
  H   H16       1.0  0.9475064795757593  0.42241947295829574  0.1515651327139842  1.0000
  H   H17       1.0  0.052988694866285435  0.5136153476093539  0.7405522222379668  1.0000
  H   H18       1.0  0.9596485542427614  0.39485872769535124  0.6209925943639059  1.0000
  H   H19       1.0  0.8203854395505503  0.18089356196438966  0.552431784687542  1.0000
  H   H20       1.0  0.0573714858295542  0.5566390526828648  0.13410063582883702  1.0000
  H   H21       1.0  0.10216893541805327  0.5941438195365867  0.9627582932525764  1.0000
  Zn  Zn1       1.0  0.814661281842324  0.3454314630576525  0.39479267871816015  1.0000
  Zn  Zn2       1.0  0.9792837984209846  0.3379254526760027  0.392103980420073  1.0000
  C   C27       1.0  0.8978129800626269  0.33465941586268255  0.6570305563422212  1.0000
  C   C28       1.0  0.8961338983240101  0.34869899691797723  0.12986621508211105  1.0000
  C   C29       1.0  0.8969539691637362  0.5704449169940582  0.3876978008249572  1.0000
  C   C30       1.0  0.8969928532935548  0.11291199317198486  0.39919904845780096  1.0000
  O   O1        1.0  0.9587770886600003  0.3471055842203683  0.18261446104632761  1.0000
  O   O2        1.0  0.9601144693825235  0.33055499882188566  0.6022412351473492  1.0000
  O   O3        1.0  0.9594199698206459  0.5209547997402373  0.38475314324830334  1.0000
  O   O4        1.0  0.9594715317031307  0.15670579565527443  0.4001024456557234  1.0000
  O   O5        1.0  0.8344734923825683  0.5266511226412356  0.38679421439243944  1.0000
  O   O6        1.0  0.8351679916961819  0.3362528269003555  0.6042822293429895  1.0000
  O   O7        1.0  0.833830605503845  0.352803382021903  0.18465372014229975  1.0000
  O   O8        1.0  0.8345250488881129  0.16240358366640617  0.40214181295127593  1.0000
