data_image0
_chemical_formula_structural       NC8NC6H8C6BrH5C6BrH5Zn2C4O8
_chemical_formula_sum              "N2 C30 H18 Br2 Zn2 O8"
_cell_length_a       17.457602349358154
_cell_length_b       10.302969083221269
_cell_length_c       10.302972455390005
_cell_angle_alpha    85.5606971791834
_cell_angle_beta     92.87591776842113
_cell_angle_gamma    91.68807063265206

_space_group_name_H-M_alt    "P 1"
_space_group_IT_number       1

loop_
  _space_group_symop_operation_xyz
  'x, y, z'

loop_
  _atom_site_type_symbol
  _atom_site_label
  _atom_site_symmetry_multiplicity
  _atom_site_fract_x
  _atom_site_fract_y
  _atom_site_fract_z
  _atom_site_occupancy
  N   N1        1.0  0.7224248714222945  0.4523641149235482  0.6269593792239792  1.0000
  C   C1        1.0  0.6613469373378895  0.4064538164649578  0.616347166347035  1.0000
  C   C2        1.0  0.5853634043046184  0.3493471176890188  0.6031551123356602  1.0000
  C   C3        1.0  0.5268347822001209  0.38949578761892467  0.6780280474638261  1.0000
  C   C4        1.0  0.4522893319778662  0.3345066632182825  0.665450228329437  1.0000
  C   C5        1.0  0.3901698139345353  0.3768977450528044  0.7447435063155263  1.0000
  C   C6        1.0  0.3156231454872081  0.39536027526323725  0.6889984136656186  1.0000
  C   C7        1.0  0.2570945205484198  0.43532507914693586  0.76397926683761  1.0000
  C   C8        1.0  0.1811096965918094  0.4543932706171343  0.7060194449392445  1.0000
  N   N2        1.0  0.1200308146379826  0.469717718930988  0.6594198991315419  1.0000
  C   C9        1.0  0.2726204013985764  0.45707041435615037  0.8952135622657627  1.0000
  C   C10       1.0  0.3463823658704667  0.4389967438399367  0.9513461249636936  1.0000
  C   C11       1.0  0.4048993859298881  0.39921193490036977  0.8768228418947144  1.0000
  C   C12       1.0  0.43756114956836345  0.23869167221931797  0.5765670277493493  1.0000
  C   C13       1.0  0.4960780535618853  0.19882159104242336  0.5020939637851058  1.0000
  C   C14       1.0  0.5698387381732709  0.25392305342666277  0.5152215510537874  1.0000
  H   H1        1.0  0.5391788283432386  0.46466559212162184  0.744636742216543  1.0000
  H   H2        1.0  0.3032781355749402  0.3803950733741608  0.587007634600081  1.0000
  H   H3        1.0  0.2277594347259408  0.48794304225453544  0.9540299611244349  1.0000
  H   H4        1.0  0.3582136647325504  0.4555191017877991  0.05296376662633073  1.0000
  H   H5        1.0  0.4613850041605447  0.3842248876708714  0.9229140666666427  1.0000
  H   H6        1.0  0.38107649350812717  0.19337085074534532  0.565918709850376  1.0000
  H   H7        1.0  0.48424781711597886  0.12476788859919918  0.43428734350313847  1.0000
  H   H8        1.0  0.6146997487952929  0.2221810085316791  0.45691610841448793  1.0000
  C   C15       1.0  0.9212315024102988  0.079793549951934  0.643195589968194  1.0000
  C   C16       1.0  0.0007729629131532079  0.08035135304867635  0.6715689197799386  1.0000
  C   C17       1.0  0.04022980857935532  0.9636902027561426  0.6856434501720328  1.0000
  C   C18       1.0  0.0007730231519733621  0.845268996079759  0.6715686783556365  1.0000
  C   C19       1.0  0.9212315142060564  0.8422785678243507  0.6431955048606983  1.0000
  C   C20       1.0  0.8818448877561832  0.9601575916856183  0.6291459121518435  1.0000
  Br  Br1       1.0  0.1484198869836444  0.966103266242061  0.7242364145257014  1.0000
  H   H9        1.0  0.8912928651387304  0.4068852646767074  0.6325155546325767  1.0000
  H   H10       1.0  0.03243691428609452  0.17105689727482676  0.6828639487578849  1.0000
  H   H11       1.0  0.032437004564146  0.7559759670781984  0.6828633713184533  1.0000
  H   H12       1.0  0.8204994543693075  0.9587892977815266  0.6072634825336323  1.0000
  H   H13       1.0  0.8912926454209387  0.5138512628658629  0.63251745511704  1.0000
  C   C21       1.0  0.9212314849822996  0.4610360568721157  0.2619529989009697  1.0000
  C   C22       1.0  0.9435998379958608  0.33065516863262  0.27273022048558304  1.0000
  C   C23       1.0  0.9546957907327086  0.2659792104255516  0.1611384724786249  1.0000
  C   C24       1.0  0.9435999673050613  0.3306551236036954  0.03764784044105696  1.0000
  C   C25       1.0  0.9212315212814528  0.4610360620092999  0.02443808393892466  1.0000
  C   C26       1.0  0.9101553227380902  0.525596863375767  0.1372567225600756  1.0000
  Br  Br2       1.0  0.9851204469476432  0.0886386591800008  0.17745173050242435  1.0000
  H   H14       1.0  0.912812555923906  0.510110441226532  0.5851981238763666  1.0000
  H   H15       1.0  0.9525041555736478  0.2787529179028807  0.3675038989539614  1.0000
  H   H16       1.0  0.952504458730942  0.27875297462670434  0.952423021074357  1.0000
  H   H17       1.0  0.8929039516063926  0.6261516022940519  0.12800685608317375  1.0000
  H   H18       1.0  0.9128114776715229  0.510109906683887  0.692164411861337  1.0000
  Zn  Zn1       1.0  0.8371653579059363  0.45736850858804234  0.6363342800678284  1.0000
  Zn  Zn2       1.0  0.005290313904902533  0.46470268083658506  0.6500556272932614  1.0000
  C   C27       1.0  0.9212298109092552  0.45586396727805534  0.8803119536345125  1.0000
  C   C28       1.0  0.9212276968209111  0.46620894033344173  0.40607823098731566  1.0000
  C   C29       1.0  0.9212275635162803  0.6981525098609451  0.6380217489799591  1.0000
  C   C30       1.0  0.9212298868445675  0.22391883544205227  0.6483685001755766  1.0000
  O   O1        1.0  0.9850289700902838  0.47072262348615435  0.4596551552389614  1.0000
  O   O2        1.0  0.9850314890963824  0.4569157717501722  0.8371488407145391  1.0000
  O   O3        1.0  0.9850288142093983  0.6525667965227759  0.6414977160161659  1.0000
  O   O4        1.0  0.9850315876076032  0.2750716054981568  0.6553061779127634  1.0000
  O   O5        1.0  0.8574240268304395  0.6469995814250913  0.6310837247590753  1.0000
  O   O6        1.0  0.8574267017139459  0.4513501164596081  0.8267347802344898  1.0000
  O   O7        1.0  0.8574241827587751  0.46515692295621536  0.44923953387974525  1.0000
  O   O8        1.0  0.8574268002729631  0.2695058956822325  0.6448906538888675  1.0000
