data_image0
_chemical_formula_structural       NC8NC6H8C6FH5C7H8Zn2C4O8
_chemical_formula_sum              "N2 C31 H21 F1 Zn2 O8"
_cell_length_a       17.457602349358154
_cell_length_b       9.275642734913903
_cell_length_c       9.274345330872308
_cell_angle_alpha    85.0458555401147
_cell_angle_beta     92.44621323531219
_cell_angle_gamma    92.29444944329062

_space_group_name_H-M_alt    "P 1"
_space_group_IT_number       1

loop_
  _space_group_symop_operation_xyz
  'x, y, z'

loop_
  _atom_site_type_symbol
  _atom_site_label
  _atom_site_symmetry_multiplicity
  _atom_site_fract_x
  _atom_site_fract_y
  _atom_site_fract_z
  _atom_site_occupancy
  N   N1        1.0  0.7377872977778814  0.6259245156701143  0.4727164926528322  1.0000
  C   C1        1.0  0.676472201696286  0.5749991972798214  0.4609719220649242  1.0000
  C   C2        1.0  0.6001936308456267  0.5116543659996173  0.446372270084763  1.0000
  C   C3        1.0  0.5415706983389404  0.55561630244757  0.5295313072613763  1.0000
  C   C4        1.0  0.4667405753560017  0.494619270516365  0.5156119957485454  1.0000
  C   C5        1.0  0.4045203824401118  0.5410345190174688  0.6036807038776539  1.0000
  C   C6        1.0  0.3303451306238499  0.5620374968812052  0.5417157702615683  1.0000
  C   C7        1.0  0.2717205535843255  0.60579417003947  0.624994921585798  1.0000
  C   C8        1.0  0.1961211061245063  0.6274895167774339  0.5605682808098387  1.0000
  N   N2        1.0  0.1353520264532619  0.6449254870832295  0.5087694360933097  1.0000
  C   C9        1.0  0.2867782414538649  0.6288135320029955  0.7708036454977627  1.0000
  C   C10       1.0  0.3601694292390412  0.6082392941768697  0.8331987405472552  1.0000
  C   C11       1.0  0.4187814178811836  0.564678647911389  0.7504278664801902  1.0000
  C   C12       1.0  0.4518244012193749  0.38892026576817584  0.41694257841788285  1.0000
  C   C13       1.0  0.5104355116390964  0.34526442230691945  0.33422759854724293  1.0000
  C   C14       1.0  0.5844790399697708  0.4063814926304419  0.3487577113216529  1.0000
  H   H1        1.0  0.5540765943569746  0.6385676708999357  0.603470229002492  1.0000
  H   H2        1.0  0.3183760343509698  0.5462973854908433  0.4283962226574318  1.0000
  H   H3        1.0  0.24183903989432784  0.6626075599297838  0.836129884923372  1.0000
  H   H4        1.0  0.37163623033404597  0.625713054902258  0.9461020173791572  1.0000
  H   H5        1.0  0.4749616736516301  0.5476220510979444  0.8016614966095137  1.0000
  H   H6        1.0  0.39510642109148136  0.3386503200851283  0.40515727005278457  1.0000
  H   H7        1.0  0.49845588768092886  0.26356377828530664  0.25895633827580267  1.0000
  H   H8        1.0  0.629410519604987  0.37161686432002994  0.28400017145011347  1.0000
  C   C15       1.0  0.9341985020996313  0.2117629433934054  0.4911484931932273  1.0000
  C   C16       1.0  0.9198893023153712  0.29538957945869915  0.3594727756464222  1.0000
  C   C17       1.0  0.912814573180572  0.2307686906024462  0.22889831322888332  1.0000
  C   C18       1.0  0.9200011662360413  0.08183556470851228  0.22769887779831266  1.0000
  C   C19       1.0  0.9329322165507673  0.996569022780306  0.357230734700811  1.0000
  C   C20       1.0  0.9389480565889484  0.05907617424566558  0.49035056918248676  1.0000
  F   F1        1.0  0.8998657116656245  0.3132045350420467  0.1028889630280907  1.0000
  H   H9        1.0  0.012136747930263647  0.29216692884969797  0.8205793923437958  1.0000
  H   H10       1.0  0.9159800362735147  0.41184225536567376  0.3572712274541947  1.0000
  H   H11       1.0  0.9148176078359481  0.031898843654300846  0.12629419061971792  1.0000
  H   H12       1.0  0.9364129922386918  0.8806058070534246  0.3535799558841304  1.0000
  H   H13       1.0  0.9883492466405615  0.7623381589235437  0.7137010159419819  1.0000
  C   C21       1.0  0.9383268665869395  0.6387463904251889  0.0671014040685769  1.0000
  C   C22       1.0  0.8932197200886349  0.7381847732847122  0.1281231096058657  1.0000
  C   C23       1.0  0.8434612205121493  0.8258017357331675  0.04144663792779979  1.0000
  C   C24       1.0  0.8370402881751178  0.8148845205721693  0.8919355402101039  1.0000
  C   C25       1.0  0.8833596657849552  0.7195593761565315  0.8290135973774753  1.0000
  C   C26       1.0  0.9348196512761515  0.632092743011395  0.9143976383486514  1.0000
  C   C27       1.0  0.7847242337083703  0.9114660411045179  0.7985187746245579  1.0000
  H   H14       1.0  0.02463368129339427  0.32871511806324905  0.2037201892730942  1.0000
  H   H15       1.0  0.8952164160833153  0.7460199551398325  0.24410994581683854  1.0000
  H   H16       1.0  0.8092658123849281  0.901213345994742  0.09139610933071585  1.0000
  H   H17       1.0  0.8804370198118009  0.7161312428615236  0.7123612702717597  1.0000
  H   H18       1.0  0.9957364013369029  0.42648462166061907  0.6563288612616587  1.0000
  H   H19       1.0  0.8166139801985176  0.013132081167023024  0.7621414232256991  1.0000
  H   H20       1.0  0.7345468005711232  0.9384477363222608  0.859500774430245  1.0000
  H   H21       1.0  0.7628736943432529  0.857120498493247  0.7020129687089285  1.0000
  Zn  Zn1       1.0  0.8525158344689621  0.6314038512352698  0.4831289267484282  1.0000
  Zn  Zn2       1.0  0.020623360317772566  0.639434230119045  0.49836882440457786  1.0000
  C   C28       1.0  0.9354486796557737  0.6276029010193072  0.7542457943291687  1.0000
  C   C29       1.0  0.9376923604775543  0.6432370872546211  0.2272522631264533  1.0000
  C   C30       1.0  0.9380701230637764  0.8989608964212885  0.4847521496713587  1.0000
  C   C31       1.0  0.9350708496717658  0.3718773551706147  0.4967459811307633  1.0000
  O   O1        1.0  0.001275309110050138  0.6477853990055809  0.28678382208661324  1.0000
  O   O2        1.0  0.9994554490173891  0.6291483759197434  0.7062805507964507  1.0000
  O   O3        1.0  0.0015714315131076795  0.8482733361356016  0.48866244664542524  1.0000
  O   O4        1.0  0.9991592697562156  0.42866044721942953  0.5044018128577827  1.0000
  O   O5        1.0  0.873979867663711  0.8421776313961413  0.4770959330870048  1.0000
  O   O6        1.0  0.8718638951989703  0.6230544051235634  0.6947139586833111  1.0000
  O   O7        1.0  0.8736837622404153  0.6416913915577613  0.27521549552516067  1.0000
  O   O8        1.0  0.8715677223778885  0.42256642860315896  0.4928335944679674  1.0000
