data_image0
_chemical_formula_structural       NC8NC6H8C7NH5C6BrH5Zn2C4O8
_chemical_formula_sum              "N3 C31 H18 Br1 Zn2 O8"
_cell_length_a       17.457602349358154
_cell_length_b       10.302819778424748
_cell_length_c       10.302972455390005
_cell_angle_alpha    85.56070675393316
_cell_angle_beta     92.87591776842113
_cell_angle_gamma    91.68806980205999

_space_group_name_H-M_alt    "P 1"
_space_group_IT_number       1

loop_
  _space_group_symop_operation_xyz
  'x, y, z'

loop_
  _atom_site_type_symbol
  _atom_site_label
  _atom_site_symmetry_multiplicity
  _atom_site_fract_x
  _atom_site_fract_y
  _atom_site_fract_z
  _atom_site_occupancy
  N   N1        1.0  0.7224248658651508  0.4523851429820691  0.6269596222064315  1.0000
  C   C1        1.0  0.6613469319564113  0.4064741798110747  0.616347401648633  1.0000
  C   C2        1.0  0.585363399141646  0.3493666542156131  0.6031553380832317  1.0000
  C   C3        1.0  0.5268347768835286  0.38951590543816605  0.6780282799283233  1.0000
  C   C4        1.0  0.4522893268716775  0.3345259848773088  0.665450451594181  1.0000
  C   C5        1.0  0.39016980866614664  0.37691768047124596  0.7447437366723544  1.0000
  C   C6        1.0  0.3156231401481768  0.39538047799148224  0.6889986471112528  1.0000
  C   C7        1.0  0.2570945150564721  0.4353458605057223  0.7639795069694091  1.0000
  C   C8        1.0  0.1811096910269015  0.45441432805479276  0.7060196882611773  1.0000
  N   N2        1.0  0.1200308090144392  0.46973899824372034  0.6594201450172754  1.0000
  C   C9        1.0  0.272620395823425  0.457091510554843  0.8952138060355854  1.0000
  C   C10       1.0  0.3463823603644702  0.4390175783589323  0.9513463657097667  1.0000
  C   C11       1.0  0.40489938057611913  0.3992321933948806  0.8768230759847362  1.0000
  C   C12       1.0  0.4375611448287892  0.23870960662068796  0.5765672349841173  1.0000
  C   C13       1.0  0.4960780489748647  0.19883894818469416  0.5020941643495562  1.0000
  C   C14       1.0  0.5698387333754171  0.25394120835563494  0.5152217608367853  1.0000
  H   H1        1.0  0.539178822739026  0.4646867982871197  0.7446369872570491  1.0000
  H   H2        1.0  0.3032781302931699  0.3804150594286819  0.5870078655420168  1.0000
  H   H3        1.0  0.2277594290326623  0.4879645854426702  0.9540302100592892  1.0000
  H   H4        1.0  0.3582136591633348  0.4555401755258073  0.05296401013661656  1.0000
  H   H5        1.0  0.4613849988641203  0.3842449291753707  0.9229142982493113  1.0000
  H   H6        1.0  0.3810764889419628  0.19338812896905555  0.56591890950291  1.0000
  H   H7        1.0  0.4842478128123083  0.12478417355470062  0.43428753167830547  1.0000
  H   H8        1.0  0.6146997441188929  0.2221987038833524  0.45691631288699996  1.0000
  C   C15       1.0  0.9212314982787123  0.07980918374632884  0.6431957706190943  1.0000
  C   C16       1.0  0.8764496320374855  0.06795565410744131  0.7532264623838194  1.0000
  C   C17       1.0  0.8541702123234215  0.9449558302828306  0.8079677707183459  1.0000
  C   C18       1.0  0.8764496939577687  0.832654646999336  0.753226471693581  1.0000
  C   C19       1.0  0.9212315109247946  0.8423052114805576  0.6431958102384898  1.0000
  C   C20       1.0  0.9433884830202327  0.9663771002970086  0.5887553702436821  1.0000
  C   C21       1.0  0.8082623087421352  0.9339333366488899  0.9207654057335786  1.0000
  N   N3        1.0  0.7713673763816588  0.9250748888240079  0.011417701430751381  1.0000
  H   H9        1.0  0.9381937765979149  0.41162144290001046  0.6015182663682068  1.0000
  H   H10       1.0  0.8587881632128516  0.15413942633412692  0.7966211314488125  1.0000
  H   H11       1.0  0.8587882589659589  0.7379898263889959  0.7966211084239554  1.0000
  H   H12       1.0  0.9779226758399058  0.9746686793412229  0.5039036649215833  1.0000
  H   H13       1.0  0.9381938469806822  0.5186383653849947  0.6015183707863705  1.0000
  C   C22       1.0  0.9212314793919747  0.46105721048737625  0.26195324333424974  1.0000
  C   C23       1.0  0.943599832904409  0.3306744345277699  0.27273044310596606  1.0000
  C   C24       1.0  0.9546957858887245  0.2659975399096317  0.16113868427863443  1.0000
  C   C25       1.0  0.9435999622136096  0.3306743894981934  0.03764806306143331  1.0000
  C   C26       1.0  0.9212315156911277  0.46105721562463464  0.02443832837220583  1.0000
  C   C27       1.0  0.9101553169007378  0.525618951734873  0.13725697779446433  1.0000
  Br  Br1       1.0  0.9851204427822131  0.08865442103833798  0.1774519126331231  1.0000
  H   H14       1.0  0.9128125501458089  0.5101323053654245  0.5851983765198563  1.0000
  H   H15       1.0  0.9525041506807881  0.2787714323311259  0.36750411289102924  1.0000
  H   H16       1.0  0.952504453838082  0.2787714890557704  0.9524232350114339  1.0000
  H   H17       1.0  0.8929039453842902  0.6261751465352692  0.1280071281405044  1.0000
  H   H18       1.0  0.9128114718934279  0.5101317708150401  0.6921646645047375  1.0000
  Zn  Zn1       1.0  0.8371653523296445  0.45738960910269344  0.6363345238875227  1.0000
  Zn  Zn2       1.0  0.005290308300548219  0.46472388753907246  0.6500558723399721  1.0000
  C   C28       1.0  0.9212298053387199  0.4558850460092001  0.880312197202495  1.0000
  C   C29       1.0  0.9212276912107933  0.466230168844312  0.4060784762860259  1.0000
  C   C30       1.0  0.9212275570186828  0.6981770965675345  0.6380220330831377  1.0000
  C   C31       1.0  0.9212298821615184  0.2239365559548574  0.6483687049388294  1.0000
  O   O1        1.0  0.9850289644628953  0.4707439173484005  0.4596554012928169  1.0000
  O   O2        1.0  0.9850314835218228  0.45693686570987113  0.8371490844584897  1.0000
  O   O3        1.0  0.9850288078862242  0.652590723216468  0.6414979924927939  1.0000
  O   O4        1.0  0.9850315827288293  0.27509006662650815  0.6553063912339425  1.0000
  O   O5        1.0  0.8574240205285671  0.6470234275138416  0.6310840003043006  1.0000
  O   O6        1.0  0.857426696160682  0.45137112983694894  0.8267350230472985  1.0000
  O   O7        1.0  0.8574241771526827  0.4651781362354488  0.4492397790024514  1.0000
  O   O8        1.0  0.857426795415485  0.26952427622743635  0.6448908662788957  1.0000
