data_image0
_chemical_formula_structural       NC9NC5H8C6SCH8C6NCOH7Zn2C4O8
_chemical_formula_sum              "N3 C32 H23 S1 O9 Zn2"
_cell_length_a       17.807436237873137
_cell_length_b       10.302809429070853
_cell_length_c       10.29962270195845
_cell_angle_alpha    85.57966227248015
_cell_angle_beta     89.41121966804023
_cell_angle_gamma    88.39000425637651

_space_group_name_H-M_alt    "P 1"
_space_group_IT_number       1

loop_
  _space_group_symop_operation_xyz
  'x, y, z'

loop_
  _atom_site_type_symbol
  _atom_site_label
  _atom_site_symmetry_multiplicity
  _atom_site_fract_x
  _atom_site_fract_y
  _atom_site_fract_z
  _atom_site_occupancy
  N   N1        1.0  0.7071413417020647  0.3868760281935777  0.5571780436053551  1.0000
  C   C1        1.0  0.6465517606209724  0.35169352648990304  0.5461544777214902  1.0000
  C   C2        1.0  0.571184981111424  0.3079303688648989  0.532442358688034  1.0000
  C   C3        1.0  0.5530739660353419  0.23650380993611342  0.4274429710064762  1.0000
  C   C4        1.0  0.47989669664561385  0.19390166774080408  0.41404676147486463  1.0000
  C   C5        1.0  0.4237817178565983  0.22234865949888905  0.5056174889007015  1.0000
  C   C6        1.0  0.3460131595858125  0.17718846198117855  0.4914628590903396  1.0000
  C   C7        1.0  0.283841633797282  0.258927947577533  0.517400943450671  1.0000
  C   C8        1.0  0.2105220621512792  0.21612283344589067  0.5040184145031044  1.0000
  C   C9        1.0  0.1473005139871931  0.3005529667950986  0.5303203907728207  1.0000
  N   N2        1.0  0.0964833774218108  0.3684289531402938  0.5514664532279498  1.0000
  C   C10       1.0  0.1987904667662776  0.09132032429065018  0.4646724521803096  1.0000
  C   C11       1.0  0.2601046211684733  0.009566987959106044  0.4387259783948063  1.0000
  C   C12       1.0  0.3333047230750521  0.05197761706289894  0.4519059755144865  1.0000
  C   C13       1.0  0.4425841782546576  0.29426950368622684  0.610836099148891  1.0000
  C   C14       1.0  0.5158142899492849  0.3366812601833138  0.6240766630004746  1.0000
  H   H1        1.0  0.59545549475058  0.21400272662270847  0.3557325830814966  1.0000
  H   H2        1.0  0.46696866625283023  0.14020948823332935  0.3311290328919958  1.0000
  H   H3        1.0  0.2923444697177678  0.3563722814862418  0.5462770496376617  1.0000
  H   H4        1.0  0.1423234709942552  0.05729129087459328  0.45407791192940494  1.0000
  H   H5        1.0  0.2509032161112624  0.9129421235292563  0.40864950092627916  1.0000
  H   H6        1.0  0.3799420142565438  0.9862465843238325  0.4328581901367001  1.0000
  H   H7        1.0  0.400919771838695  0.31623211185555  0.683840942412606  1.0000
  H   H8        1.0  0.5292704749732684  0.39159332360010923  0.7059527996570816  1.0000
  C   C15       1.0  0.9018159654927841  0.9963989180934686  0.5543278590200322  1.0000
  C   C16       1.0  0.9451333242404727  0.0019726738618148776  0.4394237076633636  1.0000
  C   C17       1.0  0.966480426346269  0.8877766872270572  0.3821069750721391  1.0000
  C   C18       1.0  0.9451332294998482  0.7668215204068709  0.439423639261161  1.0000
  C   C19       1.0  0.9018159355473843  0.7588957808791019  0.5543278526418536  1.0000
  C   C20       1.0  0.8803494877743074  0.8743083394572153  0.6111940828077722  1.0000
  S   S1        1.0  0.02196337785734226  0.8963820782625177  0.23544964110909428  1.0000
  C   C21       1.0  0.9405315166286203  0.9085027125483829  0.12947147133121417  1.0000
  H   H9        1.0  0.8854670359900438  0.321614918917698  0.5976021136812859  1.0000
  H   H10       1.0  0.962338512809683  0.09475341175412755  0.39378201836091353  1.0000
  H   H11       1.0  0.9623383470058614  0.6794030260883263  0.393781919594945  1.0000
  H   H12       1.0  0.8469246212745295  0.8691036016478384  0.6998116069378879  1.0000
  H   H13       1.0  0.8854658085735468  0.42859920862043677  0.5976007036520201  1.0000
  H   H14       1.0  0.9060590726021833  0.8206865999342189  0.14729406430690606  1.0000
  H   H15       1.0  0.9060597760748079  0.9969215281126868  0.14729358191363406  1.0000
  H   H16       1.0  0.959910605861898  0.9154919034067933  0.026540541942318807  1.0000
  C   C22       1.0  0.9017444597372939  0.37752416633356667  0.1729720961911818  1.0000
  C   C23       1.0  0.8230253705437365  0.39126945640368205  0.17203334607275833  1.0000
  C   C24       1.0  0.7835048956534524  0.400313629071547  0.05459583854571415  1.0000
  C   C25       1.0  0.8231914843060003  0.39153985554188964  0.9368587166779139  1.0000
  C   C26       1.0  0.901887435466917  0.3777705152518305  0.9356835246157913  1.0000
  C   C27       1.0  0.9407374501179004  0.3713608733540048  0.05425018339607868  1.0000
  N   N3        1.0  0.7028541645600512  0.41236801038504334  0.05766159908844082  1.0000
  C   C28       1.0  0.6587803889234712  0.4853182253677355  0.9602346226603595  1.0000
  O   O1        1.0  0.6890435585456179  0.5589314177255738  0.872680714271358  1.0000
  H   H17       1.0  0.05017499147037774  0.35020933705436263  0.3821027206206924  1.0000
  H   H18       1.0  0.7920057508311911  0.39611751575170606  0.26264405746287744  1.0000
  H   H19       1.0  0.7927001862185187  0.3927394611688071  0.846453789627108  1.0000
  H   H20       1.0  0.0014221464400818729  0.3607815218156991  0.05409643314648949  1.0000
  H   H21       1.0  0.9320192654007761  0.37051977627041066  0.6079387673495864  1.0000
  H   H22       1.0  0.6743278588702072  0.3733524889632269  0.14017739066814272  1.0000
  H   H23       1.0  0.5981938443963785  0.4800915339285863  0.9640182464247156  1.0000
  Zn  Zn1       1.0  0.8194970431750424  0.3815491390012218  0.5555373125326271  1.0000
  Zn  Zn2       1.0  0.984127659753483  0.37374526281309417  0.5531178605444269  1.0000
  C   C29       1.0  0.901858733976196  0.3725519209834487  0.7915147932364748  1.0000
  C   C30       1.0  0.9017677667373626  0.38274403377726784  0.3171404808821703  1.0000
  C   C31       1.0  0.901811100289395  0.6147661438285268  0.5491528795504537  1.0000
  C   C32       1.0  0.9018153442602912  0.14052825378743927  0.5595024646301276  1.0000
  O   O2        1.0  0.9642520497916048  0.3815286746067925  0.3646065383588788  1.0000
  O   O3        1.0  0.9643252795417917  0.3678433391500062  0.7422120538499828  1.0000
  O   O4        1.0  0.9642859727778429  0.5634344276733354  0.5465031061752197  1.0000
  O   O5        1.0  0.9642913003600224  0.18593759800235543  0.5603153894879336  1.0000
  O   O6        1.0  0.8393333463881523  0.569356806476452  0.5483397844079296  1.0000
  O   O7        1.0  0.8393726531356225  0.3737672777623646  0.7440486628395659  1.0000
  O   O8        1.0  0.8392994231427158  0.38745256747021384  0.36644158600100063  1.0000
  O   O9        1.0  0.8393386737263133  0.19186148161137595  0.5621505344945736  1.0000
