data_image0
_chemical_formula_structural       NC9NC5H8C7H8C8H10Zn2C4O8
_chemical_formula_sum              "N2 C33 H26 Zn2 O8"
_cell_length_a       17.807436237873137
_cell_length_b       9.274341958901593
_cell_length_c       9.275657083861812
_cell_angle_alpha    85.8165738975526
_cell_angle_beta     88.90332225934054
_cell_angle_gamma    87.76967926577302

_space_group_name_H-M_alt    "P 1"
_space_group_IT_number       1

loop_
  _space_group_symop_operation_xyz
  'x, y, z'

loop_
  _atom_site_type_symbol
  _atom_site_label
  _atom_site_symmetry_multiplicity
  _atom_site_fract_x
  _atom_site_fract_y
  _atom_site_fract_z
  _atom_site_occupancy
  N   N1        1.0  0.7060105768153951  0.533191332749887  0.3975624074915467  1.0000
  C   C1        1.0  0.645699118666877  0.4940299432711148  0.3853435737303317  1.0000
  C   C2        1.0  0.5706782935462974  0.4453174873356809  0.3701446712094445  1.0000
  C   C3        1.0  0.5535646363410918  0.3653496738520614  0.25362073916264927  1.0000
  C   C4        1.0  0.4807243940376741  0.31792926735043814  0.23877191882019466  1.0000
  C   C5        1.0  0.4239516186558766  0.3500570466059001  0.3404112062307554  1.0000
  C   C6        1.0  0.3465400836336446  0.2997895287907617  0.3247218041036841  1.0000
  C   C7        1.0  0.2837206821262824  0.39077499643650504  0.35347286677086487  1.0000
  C   C8        1.0  0.2107393373528777  0.3431290967891716  0.33863934097352977  1.0000
  C   C9        1.0  0.1468511530759821  0.4371068174368635  0.3677929420084982  1.0000
  N   N2        1.0  0.095498081468595  0.5126584096003306  0.39123163387047044  1.0000
  C   C10       1.0  0.1999955928974838  0.20421096345402834  0.2950267486679994  1.0000
  C   C11       1.0  0.2619577537206263  0.11321005593963518  0.26626638007965053  1.0000
  C   C12       1.0  0.3348231606119248  0.16041641441373677  0.28087528045188237  1.0000
  C   C13       1.0  0.44175247674850515  0.4305754064047429  0.4571782395532371  1.0000
  C   C14       1.0  0.5146475691475773  0.4777833575177928  0.4718543755727569  1.0000
  H   H1        1.0  0.5964626973347259  0.3399411919847841  0.1740256318538771  1.0000
  H   H2        1.0  0.46856697877693587  0.2577941551088161  0.14675185247692846  1.0000
  H   H3        1.0  0.2914618775623762  0.4992302964776474  0.38547716559587597  1.0000
  H   H4        1.0  0.1437972475859433  0.166333870487126  0.28328357338143384  1.0000
  H   H5        1.0  0.2535191428443512  0.00565872823029645  0.23292909307119802  1.0000
  H   H6        1.0  0.3819719608895223  0.08726035447277902  0.2597647888204928  1.0000
  H   H7        1.0  0.3995681314133758  0.45539272259951313  0.53821063069867  1.0000
  H   H8        1.0  0.5273309528898222  0.5392683274054904  0.5627175055925391  1.0000
  C   C15       1.0  0.9031461196064032  0.09922434131746916  0.39460512896579836  1.0000
  C   C16       1.0  0.912630673609877  0.18139123049083494  0.2624598015167847  1.0000
  C   C17       1.0  0.914631915399143  0.11566073099766316  0.13183544547571158  1.0000
  C   C18       1.0  0.906371878095938  0.9664569670445037  0.13022874940620266  1.0000
  C   C19       1.0  0.8992333029164763  0.8825530467047445  0.261269277030469  1.0000
  C   C20       1.0  0.8983697040724892  0.9466140062963416  0.3942013496866512  1.0000
  C   C21       1.0  0.910185841766428  0.8955436053779016  0.9898293508261795  1.0000
  H   H9        1.0  0.8390914021419005  0.18247442479160214  0.7296307997726201  1.0000
  H   H10       1.0  0.9169012667736587  0.29776110143149803  0.2599125956641428  1.0000
  H   H11       1.0  0.9218328069210344  0.18164332191702437  0.03163779790546917  1.0000
  H   H12       1.0  0.8960642827472747  0.7662067184477701  0.2594804155808539  1.0000
  H   H13       1.0  0.8582249339935558  0.6523012667695657  0.62159873081238  1.0000
  H   H14       1.0  0.9693951139689394  0.8627539574601275  0.9652534629650096  1.0000
  H   H15       1.0  0.8886796982108546  0.9710325403339418  0.9002177613964735  1.0000
  H   H16       1.0  0.8754864384702877  0.7982304816478791  0.9961594716821471  1.0000
  C   C22       1.0  0.9026845539608842  0.520643215424655  0.9710532630972115  1.0000
  C   C23       1.0  0.9409955495708774  0.6285776726667629  0.035308445452566284  1.0000
  C   C24       1.0  0.9726356073734597  0.7430373311722012  0.9509895822567671  1.0000
  C   C25       1.0  0.9670856328004845  0.7485193760163986  0.8004379556432335  1.0000
  C   C26       1.0  0.9303942362558002  0.6411453407024545  0.7347034774564829  1.0000
  C   C27       1.0  0.8988312839841979  0.5251951319971773  0.8177532090647408  1.0000
  C   C28       1.0  0.0143890214761766  0.8565044203695715  0.02144508205426754  1.0000
  C   C29       1.0  0.09717194396388051  0.8109809530877226  0.037967534661368374  1.0000
  H   H17       1.0  0.870247065400424  0.2922453602085724  0.26953833408122185  1.0000
  H   H18       1.0  0.9448964506919594  0.6256978469158061  0.1519715859650146  1.0000
  H   H19       1.0  0.9919254037630182  0.8353691817610593  0.7335978742207492  1.0000
  H   H20       1.0  0.9284285366029085  0.6468701147711238  0.6177579129077766  1.0000
  H   H21       1.0  0.8110326258275017  0.3635851188972521  0.551440373512714  1.0000
  H   H22       1.0  0.009682734818124095  0.9614669463091332  0.9556217560096578  1.0000
  H   H23       1.0  0.9893001623678329  0.8741630467724355  0.12972008664773926  1.0000
  H   H24       1.0  0.1031006872991338  0.7080574704960318  0.10667767201966183  1.0000
  H   H25       1.0  0.1236947201812546  0.7963075738218011  0.9303691652865789  1.0000
  H   H26       1.0  0.12690704727709656  0.8959994636042752  0.09000161832028808  1.0000
  Zn  Zn1       1.0  0.8184082398290207  0.5272621695595299  0.3957438223908485  1.0000
  Zn  Zn2       1.0  0.9831004126140738  0.5185758752814205  0.39306207646795355  1.0000
  C   C30       1.0  0.8995903585103637  0.5185868728731688  0.6577115327879568  1.0000
  C   C31       1.0  0.9019200814607332  0.5272528983787239  0.13109447741666536  1.0000
  C   C32       1.0  0.899294838671787  0.7864086532575576  0.38853285365929335  1.0000
  C   C33       1.0  0.9022155545226123  0.25942938787736125  0.40027323514690805  1.0000
  O   O1        1.0  0.9641633742579243  0.5261684703171672  0.18378806533475212  1.0000
  O   O2        1.0  0.9623446221634513  0.5130775138632682  0.6029821472855061  1.0000
  O   O3        1.0  0.9621051368069836  0.7293470410883702  0.38561847240977065  1.0000
  O   O4        1.0  0.9644028038498578  0.3098989557964127  0.4011516330270073  1.0000
  O   O5        1.0  0.8371057923919065  0.7359390920102737  0.38765426673935877  1.0000
  O   O6        1.0  0.8373452683237416  0.519671297867881  0.6050178639210797  1.0000
  O   O7        1.0  0.8391640286396256  0.5327621947215624  0.1858220487139861  1.0000
  O   O8        1.0  0.8394034577947631  0.31649267046219576  0.4031857244972863  1.0000
