data_image0
_chemical_formula_structural       NC8NC6H8C6BrH5C6ClH5Zn2C4O8
_chemical_formula_sum              "N2 C30 H18 Br1 Cl1 Zn2 O8"
_cell_length_a       17.457602349358154
_cell_length_b       10.302969083221269
_cell_length_c       10.302974078461048
_cell_angle_alpha    85.56069307816827
_cell_angle_beta     92.87591007631781
_cell_angle_gamma    91.68807063265206

_space_group_name_H-M_alt    "P 1"
_space_group_IT_number       1

loop_
  _space_group_symop_operation_xyz
  'x, y, z'

loop_
  _atom_site_type_symbol
  _atom_site_label
  _atom_site_symmetry_multiplicity
  _atom_site_fract_x
  _atom_site_fract_y
  _atom_site_fract_z
  _atom_site_occupancy
  N   N1        1.0  0.722424981912624  0.4523642183132315  0.6269595969154809  1.0000
  C   C1        1.0  0.6613470486821974  0.40645392065373875  0.6163473857210713  1.0000
  C   C2        1.0  0.5853635167105077  0.3493472228711585  0.6031553338012579  1.0000
  C   C3        1.0  0.5268348885808897  0.38949588716314754  0.6780282570585427  1.0000
  C   C4        1.0  0.4522894393707881  0.3345067637096124  0.6654504399183296  1.0000
  C   C5        1.0  0.390169914946626  0.3768978395733664  0.7447437053327053  1.0000
  C   C6        1.0  0.3156232509851776  0.3953603739813938  0.6889986215210162  1.0000
  C   C7        1.0  0.2570946200125843  0.43532517221904876  0.7639794628050165  1.0000
  C   C8        1.0  0.1811098007200746  0.4543933680536103  0.7060196500960083  1.0000
  N   N2        1.0  0.1200309225161728  0.4697178198764005  0.659420111676525  1.0000
  C   C9        1.0  0.2726204903021498  0.4570704975463473  0.8952137374263625  1.0000
  C   C10       1.0  0.3463824502569812  0.4389968228033627  0.9513462912246424  1.0000
  C   C11       1.0  0.4048994763133862  0.3992120194753843  0.876823019971108  1.0000
  C   C12       1.0  0.4375612641138298  0.23869177940353503  0.5765672534304083  1.0000
  C   C13       1.0  0.496078174100294  0.19882170383444708  0.5020942012736473  1.0000
  C   C14       1.0  0.5698388576552861  0.2539231652301819  0.5152217864609889  1.0000
  H   H1        1.0  0.5391789293639206  0.4646656866502228  0.7446369412506493  1.0000
  H   H2        1.0  0.3032782492802377  0.3803951797722025  0.5870078586258127  1.0000
  H   H3        1.0  0.22775951889648363  0.48794312101586934  0.9540301269598699  1.0000
  H   H4        1.0  0.3582137409417637  0.45551917309943724  0.052963916776105124  1.0000
  H   H5        1.0  0.4613850908350232  0.3842249687752257  0.92291423743541  1.0000
  H   H6        1.0  0.3810766089104771  0.19337095873137877  0.565918937219694  1.0000
  H   H7        1.0  0.48424794311087277  0.12476800649704778  0.43428759174221776  1.0000
  H   H8        1.0  0.6146998729692214  0.2221811247255865  0.45691635306584377  1.0000
  C   C15       1.0  0.9212316115940796  0.07979365211903389  0.6431958050854927  1.0000
  C   C16       1.0  0.0007730698136962921  0.08035145307927016  0.6715691303987306  1.0000
  C   C17       1.0  0.04022991434730305  0.9636903017269268  0.6856436585593499  1.0000
  C   C18       1.0  0.0007731300525357643  0.8452690961103709  0.6715688889744669  1.0000
  C   C19       1.0  0.9212316233898442  0.8422786699914571  0.6431957199780105  1.0000
  C   C20       1.0  0.8818449980705597  0.9601576949106558  0.6291461294966769  1.0000
  Br  Br1       1.0  0.1484199896459668  0.966103362306803  0.7242366167942189  1.0000
  H   H9        1.0  0.8912929751819474  0.40688536764801153  0.6325157714431635  1.0000
  H   H10       1.0  0.032437020277712225  0.17105699645490713  0.6828641575858838  1.0000
  H   H11       1.0  0.03243711055581011  0.7559760662583223  0.6828635801465435  1.0000
  H   H12       1.0  0.8204995664445911  0.9587894026543067  0.6072637033478594  1.0000
  H   H13       1.0  0.8912927554640029  0.5138513658370241  0.6325176719273256  1.0000
  C   C21       1.0  0.9212316248451577  0.46103618774670596  0.2619532744631461  1.0000
  C   C22       1.0  0.9078861608723802  0.3256111836291038  0.27009743442148837  1.0000
  C   C23       1.0  0.9012645449924013  0.2584169868988575  0.15718155648100618  1.0000
  C   C24       1.0  0.9078861951857528  0.32561125844748373  0.03498953825171558  1.0000
  C   C25       1.0  0.9212316228881956  0.4610361206457583  0.024438293376806586  1.0000
  C   C26       1.0  0.9278393154760577  0.5280885114044818  0.13856751720869886  1.0000
  Cl  Cl1       1.0  0.8845928925613221  0.08923898456677226  0.1688590900002087  1.0000
  H   H14       1.0  0.9262590731633351  0.5120484686724189  0.5861884851794146  1.0000
  H   H15       1.0  0.9025783686420925  0.27174949749743327  0.3638617875871468  1.0000
  H   H16       1.0  0.9025784222541491  0.2717494813120347  0.9486608258901259  1.0000
  H   H17       1.0  0.9381317034342198  0.6325323378146175  0.1313581687649148  1.0000
  H   H18       1.0  0.9262589271739685  0.5120484508118648  0.6931608427794789  1.0000
  Zn  Zn1       1.0  0.8371654676418556  0.4573686112717974  0.6363344962729673  1.0000
  Zn  Zn2       1.0  0.005290422536647688  0.46470278248712527  0.6500558413229218  1.0000
  C   C27       1.0  0.9212299010119802  0.4558640515903407  0.880312131157718  1.0000
  C   C28       1.0  0.9212278250858285  0.46620906035543097  0.40607848369886557  1.0000
  C   C29       1.0  0.921227673116407  0.698152612417634  0.6380219649175547  1.0000
  C   C30       1.0  0.921229995612078  0.22391893721963285  0.6483687144727257  1.0000
  O   O1        1.0  0.9850290940437978  0.47072273947381205  0.45965539945604994  1.0000
  O   O2        1.0  0.9850315826724981  0.4569158593126308  0.8371490250811278  1.0000
  O   O3        1.0  0.9850289235298094  0.6525668988177249  0.6414979314026579  1.0000
  O   O4        1.0  0.9850316958168297  0.2750717067533315  0.6553063911099646  1.0000
  O   O5        1.0  0.8574241369888778  0.6469996845042123  0.631083941796674  1.0000
  O   O6        1.0  0.8574267961280942  0.45135020480624366  0.8267349662521961  1.0000
  O   O7        1.0  0.8574243075504473  0.46515703972816747  0.4492397797481993  1.0000
  O   O8        1.0  0.8574269093203402  0.26950599772169404  0.6448908687374189  1.0000
