data_image0
_chemical_formula_structural       NC8NC6H8C6NCOH7C6H6Zn2C4O8
_chemical_formula_sum              "N3 C31 H21 O9 Zn2"
_cell_length_a       17.457602349358154
_cell_length_b       10.299619329790078
_cell_length_c       10.681121600428288
_cell_angle_alpha    85.56660960021885
_cell_angle_beta     92.87590736930572
_cell_angle_gamma    91.71362633690529

_space_group_name_H-M_alt    "P 1"
_space_group_IT_number       1

loop_
  _space_group_symop_operation_xyz
  'x, y, z'

loop_
  _atom_site_type_symbol
  _atom_site_label
  _atom_site_symmetry_multiplicity
  _atom_site_fract_x
  _atom_site_fract_y
  _atom_site_fract_z
  _atom_site_occupancy
  N   N1        1.0  0.7228126450763634  0.45284187008795596  0.6757453294156424  1.0000
  C   C1        1.0  0.6617224589609091  0.40691646855224395  0.6655032789507365  1.0000
  C   C2        1.0  0.5857236859246234  0.34979098342773884  0.6527713699628463  1.0000
  C   C3        1.0  0.527205771233395  0.3899528621105104  0.7249983910533415  1.0000
  C   C4        1.0  0.4526456461095307  0.33494564798023063  0.7128592267298999  1.0000
  C   C5        1.0  0.3905374334919689  0.37735067631613073  0.7893503659475283  1.0000
  C   C6        1.0  0.3159956985411093  0.39581927914850645  0.7355810763193227  1.0000
  C   C7        1.0  0.2574777319313654  0.43579723130125636  0.8079121725594469  1.0000
  C   C8        1.0  0.1814980033553311  0.45487169459876475  0.7520066360641382  1.0000
  N   N2        1.0  0.12042321638532312  0.4702011833637587  0.7070587296040194  1.0000
  C   C9        1.0  0.2730094024312835  0.4575497221247611  0.9345029400395062  1.0000
  C   C10       1.0  0.34676653714942596  0.4394701069143667  0.9886460288989318  1.0000
  C   C11       1.0  0.4052729468703489  0.3996722089253666  0.9167563249200332  1.0000
  C   C12       1.0  0.4378919007989362  0.23909913570097308  0.6271112268095098  1.0000
  C   C13       1.0  0.4963981716899686  0.19921593742384536  0.55526995369927  1.0000
  C   C14       1.0  0.570173561126433  0.2543355265020464  0.5679394360059837  1.0000
  H   H1        1.0  0.5395698725920244  0.46514739597498234  0.789257986446569  1.0000
  H   H2        1.0  0.3036467054245161  0.3808491525539657  0.6371993211503351  1.0000
  H   H3        1.0  0.2281566691733428  0.4884325070153932  0.9912407618862871  1.0000
  H   H4        1.0  0.3586022348508041  0.4559979018121687  0.08666804518810989  1.0000
  H   H5        1.0  0.46175456022177896  0.38468023222971026  0.9612139474632806  1.0000
  H   H6        1.0  0.3813951500391699  0.19376340506686573  0.6168344207923313  1.0000
  H   H7        1.0  0.48454817803726474  0.12513787275827193  0.48985497840744596  1.0000
  H   H8        1.0  0.6150261062372243  0.2225830386150074  0.5116943756827326  1.0000
  C   C15       1.0  0.9215198376139425  0.08014874252822457  0.6913617044374429  1.0000
  C   C16       1.0  0.8845146538098619  0.08662457342996355  0.571243056181501  1.0000
  C   C17       1.0  0.8670131458842003  0.9732092092006579  0.509941921551684  1.0000
  C   C18       1.0  0.884743137936408  0.8514760915781611  0.5713574536434369  1.0000
  C   C19       1.0  0.9217233249146188  0.842884639743582  0.6914537853968412  1.0000
  C   C20       1.0  0.9401743194661534  0.9578442161541981  0.7505617141087453  1.0000
  N   N3        1.0  0.8280809812593458  0.9835878960900308  0.3878184604104289  1.0000
  C   C21       1.0  0.8401443097937521  0.8994361534164983  0.2902345378988809  1.0000
  O   O1        1.0  0.8940068089972198  0.8200633346060876  0.2997409840935048  1.0000
  H   H9        1.0  0.9905939662737767  0.27510326132183116  0.9185034366686171  1.0000
  H   H10       1.0  0.8696469892552613  0.18007762418239182  0.5241739304897657  1.0000
  H   H11       1.0  0.868337351532028  0.7633664142663932  0.5267474052090015  1.0000
  H   H12       1.0  0.9687102231231424  0.9519769323886282  0.8431535202893825  1.0000
  H   H13       1.0  0.9348886326538136  0.5120233604957953  0.7383570005654767  1.0000
  H   H14       1.0  0.7925683348809655  0.06263897149287256  0.36473993145204586  1.0000
  H   H15       1.0  0.8037226115819288  0.9067164800098957  0.205131319431199  1.0000
  C   C22       1.0  0.9216216121775495  0.46151665882703696  0.32366250586555756  1.0000
  C   C23       1.0  0.8666878941255516  0.38689041383815637  0.2579065671099463  1.0000
  C   C24       1.0  0.8666878462464127  0.38689049502039397  0.12702442339468178  1.0000
  C   C25       1.0  0.9216215518809329  0.4615167198557648  0.0591529367996495  1.0000
  C   C26       1.0  0.9765099291656467  0.5360811300186163  0.12490471847458262  1.0000
  C   C27       1.0  0.9765099193443052  0.5360811094519573  0.2557970163621517  1.0000
  H   H16       1.0  0.9771741632954031  0.5369842742745736  0.6213025161631214  1.0000
  H   H17       1.0  0.8236282525710277  0.3283948361499367  0.30754663863334986  1.0000
  H   H18       1.0  0.8236282365640065  0.3283948965822281  0.07904260815329422  1.0000
  H   H19       1.0  0.01957519378310657  0.5945844136874674  0.07530942590135559  1.0000
  H   H20       1.0  0.019575155115413967  0.5945843664732131  0.3037337903359889  1.0000
  H   H21       1.0  0.9771744026267436  0.5369838322575495  0.7593735092528768  1.0000
  Zn  Zn1       1.0  0.837554466197734  0.4578479101787716  0.6847889304828156  1.0000
  Zn  Zn2       1.0  0.005681378172446738  0.4651844953415589  0.6980253799521134  1.0000
  C   C28       1.0  0.9216184915433602  0.45634287792312933  0.9201287549651049  1.0000
  C   C29       1.0  0.9216191892046913  0.4666912463492996  0.4626858231221622  1.0000
  C   C30       1.0  0.9216809353453875  0.6987111211034416  0.6864457504036143  1.0000
  C   C31       1.0  0.9215566876163681  0.22432144034654256  0.69636888974387  1.0000
  O   O2        1.0  0.985421661414739  0.4712064152255704  0.5143664812946127  1.0000
  O   O3        1.0  0.9854204550687872  0.45739502769557006  0.8784938950599261  1.0000
  O   O4        1.0  0.9854700191297486  0.6531104116962221  0.6897931479778447  1.0000
  O   O5        1.0  0.9853720399859344  0.2754910380117537  0.7030671299649704  1.0000
  O   O6        1.0  0.8578637470107826  0.6475413650063737  0.6797471759464211  1.0000
  O   O7        1.0  0.8578141833626534  0.4518275413259636  0.8684478564447475  1.0000
  O   O8        1.0  0.8578153897476262  0.46563888360168093  0.50431893705541  1.0000
  O   O9        1.0  0.8577657683132015  0.2699234970988258  0.6930196796139538  1.0000
