data_image0
_chemical_formula_structural       NC9NC5H8C8H10C6ClH5Zn2C4O8
_chemical_formula_sum              "N2 C32 H23 Cl1 Zn2 O8"
_cell_length_a       17.807436237873137
_cell_length_b       9.275653711864159
_cell_length_c       10.302974078461048
_cell_angle_alpha    85.74330483698749
_cell_angle_beta     89.39214410348855
_cell_angle_gamma    87.8440138982238

_space_group_name_H-M_alt    "P 1"
_space_group_IT_number       1

loop_
  _space_group_symop_operation_xyz
  'x, y, z'

loop_
  _atom_site_type_symbol
  _atom_site_label
  _atom_site_symmetry_multiplicity
  _atom_site_fract_x
  _atom_site_fract_y
  _atom_site_fract_z
  _atom_site_occupancy
  N   N1        1.0  0.699737199931741  0.5410734493219715  0.5621492867482509  1.0000
  C   C1        1.0  0.6393442918464474  0.5019963316240963  0.5510138021613387  1.0000
  C   C2        1.0  0.5642221518881056  0.4533887006053756  0.5371624685914886  1.0000
  C   C3        1.0  0.5465257585417477  0.3740850452767084  0.43196048773343243  1.0000
  C   C4        1.0  0.4735866474223806  0.3267669684027752  0.4184287712242847  1.0000
  C   C5        1.0  0.4172972990765345  0.3583333110794822  0.510065358655583  1.0000
  C   C6        1.0  0.3397811908097211  0.30817399302064996  0.4957670716245821  1.0000
  C   C7        1.0  0.2771526740375096  0.398961720319835  0.5219650791822574  1.0000
  C   C8        1.0  0.2040723809417568  0.3514181752878627  0.508446374556226  1.0000
  C   C9        1.0  0.1403788898320366  0.44519457033681364  0.5350169760071004  1.0000
  N   N2        1.0  0.0891823435843499  0.5205843041229714  0.5563789941986685  1.0000
  C   C10       1.0  0.1930384865265854  0.21280042369181884  0.46870347639697596  1.0000
  C   C11       1.0  0.2548097100911523  0.12199731386845669  0.4424970365605103  1.0000
  C   C12       1.0  0.3277727533066861  0.16910273367793227  0.4558119779878045  1.0000
  C   C13       1.0  0.4356823627015958  0.43818594473184147  0.6154881152693179  1.0000
  C   C14       1.0  0.5086753982219773  0.4852925951273057  0.6288636090708855  1.0000
  H   H1        1.0  0.5890450768033592  0.3491163502671806  0.36019779096202864  1.0000
  H   H2        1.0  0.4609710336451375  0.26715491464387786  0.3353599395663689  1.0000
  H   H3        1.0  0.2851110957835636  0.5071934953007418  0.5511516579591018  1.0000
  H   H4        1.0  0.1367617032151229  0.1750044361076304  0.4580006665797838  1.0000
  H   H5        1.0  0.24614840888182518  0.014676244488509127  0.41211312754198093  1.0000
  H   H6        1.0  0.37477719887713246  0.09609488278181622  0.43655463514541903  1.0000
  H   H7        1.0  0.3938829051631946  0.4625560316857382  0.6885431184074795  1.0000
  H   H8        1.0  0.5218126117681642  0.5462600818492496  0.7108951536673396  1.0000
  C   C15       1.0  0.8965724328500438  0.10732860820114931  0.558021348800928  1.0000
  C   C16       1.0  0.8789364376717709  0.1916624239243192  0.4424969521562312  1.0000
  C   C17       1.0  0.8545249289199185  0.12771974550834964  0.33209736324876293  1.0000
  C   C18       1.0  0.8488672181705622  0.9774236843301988  0.33632943466796417  1.0000
  C   C19       1.0  0.8673141526908346  0.8918597391264242  0.449339859860457  1.0000
  C   C20       1.0  0.8923543352699356  0.9543176700546748  0.5605180372746594  1.0000
  C   C21       1.0  0.8369242069604963  0.21943388683605725  0.20865891219356247  1.0000
  C   C22       1.0  0.9072180501680276  0.2375746108800878  0.1240726179600713  1.0000
  H   H9        1.0  0.9647863855619593  0.36828366666180257  0.7369552013020515  1.0000
  H   H10       1.0  0.8825345093630799  0.3082918125466356  0.43894599382998645  1.0000
  H   H11       1.0  0.8308726743202977  0.926129567203689  0.2514394678487222  1.0000
  H   H12       1.0  0.8638391265291141  0.7755714458247928  0.4485988778533079  1.0000
  H   H13       1.0  0.8994255172974682  0.6548384133405629  0.7745008310279469  1.0000
  H   H14       1.0  0.7931158466337398  0.16885830632354093  0.15285449340518542  1.0000
  H   H15       1.0  0.814118521923262  0.32779711088065655  0.2320078108796586  1.0000
  H   H16       1.0  0.9510100286701771  0.2914671232795343  0.17702266013481527  1.0000
  H   H17       1.0  0.9297738134677203  0.13048143271751456  0.0970242505083212  1.0000
  H   H18       1.0  0.8930456299638025  0.30537928829951255  0.03367106493221672  1.0000
  C   C23       1.0  0.8944633943339986  0.5308231761327844  0.17802721261273313  1.0000
  C   C24       1.0  0.8821377991964433  0.3817241267454561  0.18701302301241696  1.0000
  C   C25       1.0  0.8760222136363445  0.3077452373995855  0.07451474526495128  1.0000
  C   C26       1.0  0.8821378323999253  0.38172420642394767  0.9519051237834231  1.0000
  C   C27       1.0  0.8944633927879356  0.5308231017909506  0.9405122314951151  1.0000
  C   C28       1.0  0.900566121944882  0.6046458617259998  0.054224731531813175  1.0000
  Cl  Cl1       1.0  0.8606246196148853  0.12148510380815947  0.08724369989284919  1.0000
  H   H19       1.0  0.8991066665850402  0.5869861917935033  0.5019453455985201  1.0000
  H   H20       1.0  0.8772356324037515  0.3224239525000121  0.28111211920945567  1.0000
  H   H21       1.0  0.8772356850179117  0.32242392915890616  0.865911152296845  1.0000
  H   H22       1.0  0.9100719571527046  0.7196355255458198  0.046366280315115915  1.0000
  H   H23       1.0  0.8991065236556399  0.5869861865544104  0.6089177171981914  1.0000
  Zn  Zn1       1.0  0.8121226738826525  0.535156876498516  0.5604916019229162  1.0000
  Zn  Zn2       1.0  0.9767969099804595  0.5264891212796567  0.5580473174439269  1.0000
  C   C29       1.0  0.894490317964602  0.5250779991383061  0.7963692989135207  1.0000
  C   C30       1.0  0.8944310550740387  0.5365697236319409  0.32216972654986753  1.0000
  C   C31       1.0  0.893147783633072  0.7942189397806108  0.5548727319229139  1.0000
  C   C32       1.0  0.8957735418426535  0.267427053272594  0.56366635848272  1.0000
  O   O1        1.0  0.956913247448171  0.535202657878886  0.36961765921777157  1.0000
  O   O2        1.0  0.9569920659043888  0.5198653512825488  0.7470658339538254  1.0000
  O   O3        1.0  0.9559071100172651  0.7372001089451472  0.5520556644054695  1.0000
  O   O4        1.0  0.9579981470917566  0.31786791349055576  0.5646277322882178  1.0000
  O   O5        1.0  0.830921380576113  0.7437780872470663  0.5539111879059158  1.0000
  O   O6        1.0  0.8320063278309087  0.5264450622609593  0.7489212933393163  1.0000
  O   O7        1.0  0.8319275096749744  0.5417823185991937  0.3714715575712888  1.0000
  O   O8        1.0  0.8330124093668551  0.32444756389604446  0.5664817279469352  1.0000
