data_image0
_chemical_formula_structural       NC9NC5H8C6BrH5C6SCH8Zn2C4O8
_chemical_formula_sum              "N2 C31 H21 Br1 S1 Zn2 O8"
_cell_length_a       17.807436237873137
_cell_length_b       10.302969083221269
_cell_length_c       10.302812801239593
_cell_angle_alpha    85.5606946464392
_cell_angle_beta     89.39214003622364
_cell_angle_gamma    88.39001038669201

_space_group_name_H-M_alt    "P 1"
_space_group_IT_number       1

loop_
  _space_group_symop_operation_xyz
  'x, y, z'

loop_
  _atom_site_type_symbol
  _atom_site_label
  _atom_site_symmetry_multiplicity
  _atom_site_fract_x
  _atom_site_fract_y
  _atom_site_fract_z
  _atom_site_occupancy
  N   N1        1.0  0.7074119822707778  0.38732057996742686  0.5575838667880793  1.0000
  C   C1        1.0  0.6468244661178624  0.35214218417448584  0.5465634029365698  1.0000
  C   C2        1.0  0.5714602551547618  0.3083841338557758  0.5328551424945471  1.0000
  C   C3        1.0  0.5533689248748077  0.23699259747058665  0.4278852934182844  1.0000
  C   C4        1.0  0.48019416486502087  0.1943954425484471  0.4144928535763772  1.0000
  C   C5        1.0  0.4240620167214686  0.22281241536674012  0.5060378212268086  1.0000
  C   C6        1.0  0.3462961098889488  0.1776574897392782  0.49188717452997266  1.0000
  C   C7        1.0  0.2841197253282102  0.25938733043891404  0.5178179599437926  1.0000
  C   C8        1.0  0.210802660484198  0.21658720230686002  0.5044391968439117  1.0000
  C   C9        1.0  0.1475761854788124  0.301007531523507  0.5307337717201661  1.0000
  N   N2        1.0  0.0967550878688878  0.3688756356712901  0.5518738836594896  1.0000
  C   C10       1.0  0.1990784354107697  0.09179933623257286  0.46510430645405476  1.0000
  C   C11       1.0  0.2603974501574783  0.010055647722239991  0.43916513397544454  1.0000
  C   C12       1.0  0.3335950832158535  0.05246136235906795  0.45234142223204876  1.0000
  C   C13       1.0  0.4428447512460017  0.29469815854005144  0.6112268311868658  1.0000
  C   C14       1.0  0.5160723827351686  0.33710498098914243  0.6244636691378889  1.0000
  H   H1        1.0  0.5957638991510509  0.21451502590041316  0.35619507836053965  1.0000
  H   H2        1.0  0.4672816796702061  0.14073087820277141  0.33159845146443256  1.0000
  H   H3        1.0  0.292617152520728  0.3568208270745825  0.5466859402271551  1.0000
  H   H4        1.0  0.1426134241886865  0.057774252273624205  0.4545127475143931  1.0000
  H   H5        1.0  0.2512016789698174  0.9134419955964458  0.40909712004995447  1.0000
  H   H6        1.0  0.3802359421112226  0.9867375008170391  0.43329899705681263  1.0000
  H   H7        1.0  0.4011666565024823  0.31663684519075286  0.6842111374692768  1.0000
  H   H8        1.0  0.529513217953704  0.39198974678306  0.7063167722857757  1.0000
  C   C15       1.0  0.9020871162802611  0.9968504415427968  0.5547344961499396  1.0000
  C   C16       1.0  0.9799755844986503  0.9902467210234793  0.5754721269449306  1.0000
  C   C17       1.0  0.018612457020763307  0.8700330695539892  0.5857589396365885  1.0000
  C   C18       1.0  0.9799756434856481  0.7551643586309637  0.5754718797338394  1.0000
  C   C19       1.0  0.902087127830896  0.7593354583531844  0.5547344099087086  1.0000
  C   C20       1.0  0.8635190152632246  0.8807606611970138  0.5444657941020485  1.0000
  Br  Br1       1.0  0.12455418137509167  0.8627052281505779  0.6139660389377684  1.0000
  H   H9        1.0  0.8727706493348357  0.326637684568148  0.546928464145505  1.0000
  H   H10       1.0  0.010981510899638058  0.07810139811566041  0.5837275285303167  1.0000
  H   H11       1.0  0.010981599301648215  0.6630204597908617  0.5837269424150613  1.0000
  H   H12       1.0  0.8034484330977493  0.8849156097272398  0.5284723092259522  1.0000
  H   H13       1.0  0.872770434182875  0.43360370253954134  0.5469303857527745  1.0000
  C   C21       1.0  0.9020871450921035  0.37809296475979104  0.17348599697418554  1.0000
  C   C22       1.0  0.8767510343220788  0.5087623586240231  0.162660272350174  1.0000
  C   C23       1.0  0.8639509026584755  0.573597012407179  0.04030098881959576  1.0000
  C   C24       1.0  0.8767509665935856  0.5087622255488116  0.9275091036542187  1.0000
  C   C25       1.0  0.9020870963623032  0.3780929583191892  0.9359829013183756  1.0000
  C   C26       1.0  0.9146081979183686  0.31338656850639834  0.05951342880639121  1.0000
  S   S1        1.0  0.8317345683586072  0.7406353018377587  0.02796211654538938  1.0000
  C   C27       1.0  0.7329141791612352  0.6999570686407246  0.03292351595911991  1.0000
  H   H14       1.0  0.9116071838940405  0.32883468284657225  0.5048804626772552  1.0000
  H   H15       1.0  0.86668650527425  0.5606646598813929  0.24892692029402186  1.0000
  H   H16       1.0  0.8666863548635969  0.560664479989772  0.833576609517805  1.0000
  H   H17       1.0  0.9341374399291485  0.2125875118842524  0.06695757094092847  1.0000
  H   H18       1.0  0.9116057850522229  0.3288340750908654  0.6118648976781018  1.0000
  H   H19       1.0  0.719592393305434  0.6428327183624258  0.9494725714792009  1.0000
  H   H20       1.0  0.7195927150682903  0.6428340151802305  0.12570725879371825  1.0000
  H   H21       1.0  0.6981439081444989  0.7912148545311355  0.026496928278246568  1.0000
  Zn  Zn1       1.0  0.8197679910789688  0.38199430329323825  0.5559435974200326  1.0000
  Zn  Zn2       1.0  0.9843990608627069  0.3741913295413537  0.5535248262683834  1.0000
  C   C28       1.0  0.9020854313971877  0.3729210020033864  0.7918546978317136  1.0000
  C   C29       1.0  0.9020834183106708  0.38326618372090304  0.31761382686982187  1.0000
  C   C30       1.0  0.9020832598648757  0.6152097562903525  0.5495609531017738  1.0000
  C   C31       1.0  0.9020855336658752  0.14097587229068664  0.5599076416420385  1.0000
  O   O1        1.0  0.9645588005695811  0.3820355114511551  0.3650665321608373  1.0000
  O   O2        1.0  0.9645612218004883  0.3682284183333744  0.7425658274752933  1.0000
  O   O3        1.0  0.9645586260457075  0.5638796914978139  0.5469119267113469  1.0000
  O   O4        1.0  0.9645613401469355  0.1863842502366082  0.560720336406233  1.0000
  O   O5        1.0  0.8396056556142356  0.5698013852621693  0.5487480881007618  1.0000
  O   O6        1.0  0.8396082513656193  0.37415167190516563  0.7444019196410105  1.0000
  O   O7        1.0  0.8396058301847694  0.3879587197790466  0.3669010634183023  1.0000
  O   O8        1.0  0.8396083697590457  0.19230744927879262  0.5625549650008281  1.0000
