data_image0
_chemical_formula_structural       NC8NC6H8C7F3H5C6BrH5Zn2C4O8
_chemical_formula_sum              "N2 C31 H18 F3 Br1 Zn2 O8"
_cell_length_a       17.457602349358154
_cell_length_b       9.27228830945605
_cell_length_c       10.302972455390005
_cell_angle_alpha    85.26210740254696
_cell_angle_beta     92.87591776842113
_cell_angle_gamma    91.12935064675003

_space_group_name_H-M_alt    "P 1"
_space_group_IT_number       1

loop_
  _space_group_symop_operation_xyz
  'x, y, z'

loop_
  _atom_site_type_symbol
  _atom_site_label
  _atom_site_symmetry_multiplicity
  _atom_site_fract_x
  _atom_site_fract_y
  _atom_site_fract_z
  _atom_site_occupancy
  N   N1        1.0  0.7138267636345481  0.6141446335082954  0.6186586034282369  1.0000
  C   C1        1.0  0.6530206220646089  0.5631203338039483  0.6083087841826864  1.0000
  C   C2        1.0  0.5773751651008524  0.49965245380099943  0.5954431151997648  1.0000
  C   C3        1.0  0.518608859767993  0.5442733305108767  0.6700865864461389  1.0000
  C   C4        1.0  0.44438894941132195  0.48315890394210315  0.6578230496519457  1.0000
  C   C5        1.0  0.3820184728878775  0.5302719774122544  0.7368740475772482  1.0000
  C   C6        1.0  0.3073625048350639  0.550791070216833  0.681023435022019  1.0000
  C   C7        1.0  0.24859728516911503  0.5952075998289534  0.7557758751718555  1.0000
  C   C8        1.0  0.1724995760455595  0.6163998192015381  0.6977070717993554  1.0000
  N   N2        1.0  0.11132997217356061  0.6334312755375302  0.6510199413368545  1.0000
  C   C9        1.0  0.2639944319545227  0.6193751730780626  0.8868858883003286  1.0000
  C   C10       1.0  0.3378633939524617  0.5992882554988033  0.9431217484325733  1.0000
  C   C11       1.0  0.39661594315506576  0.5550717706758255  0.8688258496508332  1.0000
  C   C12       1.0  0.43022799915237  0.3766709702748867  0.5694874657128781  1.0000
  C   C13       1.0  0.48898093710730867  0.3323597146414381  0.49524227339694016  1.0000
  C   C14       1.0  0.5624154168035673  0.39359899265173337  0.5080549362740254  1.0000
  H   H1        1.0  0.530507894859917  0.6278163864795121  0.7362656591176056  1.0000
  H   H2        1.0  0.2951060900743737  0.5341588771803829  0.5791181873906053  1.0000
  H   H3        1.0  0.2189506969391322  0.6536867387057359  0.9455258391458772  1.0000
  H   H4        1.0  0.34959687917877474  0.6176510580084542  0.04464495896218146  1.0000
  H   H5        1.0  0.4531902858634033  0.5384152989212172  0.9150027307107502  1.0000
  H   H6        1.0  0.37401164585730007  0.3263018100782711  0.5590981723753554  1.0000
  H   H7        1.0  0.4775891043021602  0.2500570846315784  0.42785889627728313  1.0000
  H   H8        1.0  0.6074643427841461  0.35832116466263164  0.44993091067420266  1.0000
  C   C15       1.0  0.9148390411565388  0.20007300238448367  0.637024187031602  1.0000
  C   C16       1.0  0.9512819488412984  0.28385088492997634  0.5374480183015251  1.0000
  C   C17       1.0  0.980150200612678  0.21963532327555169  0.43272872992116374  1.0000
  C   C18       1.0  0.9722947666638487  0.07004949084453105  0.42379060327057316  1.0000
  C   C19       1.0  0.938649744759883  0.9847249075540657  0.5252470966103555  1.0000
  C   C20       1.0  0.9103251032058567  0.047492146699784854  0.6326662622811143  1.0000
  C   C21       1.0  0.005447739748749125  0.00011681794533213719  0.3124523209946868  1.0000
  F   F1        1.0  0.004783493584871623  0.09468457983988388  0.20118256375893817  1.0000
  F   F2        1.0  0.9632114143288432  0.8777144465175775  0.28426580352304476  1.0000
  F   F3        1.0  0.08024229618284617  0.961188480753373  0.34665602605787926  1.0000
  H   H9        1.0  0.7858871289993226  0.2763929393587572  0.8600483534036427  1.0000
  H   H10       1.0  0.956120023755716  0.40034989412699007  0.5391852767560976  1.0000
  H   H11       1.0  0.008097335588571841  0.28746859784305445  0.35796399017015545  1.0000
  H   H12       1.0  0.9361989149163469  0.8681671818702269  0.5221282828777618  1.0000
  H   H13       1.0  0.8746041241349335  0.9160715933789658  0.9441741659105574  1.0000
  C   C22       1.0  0.9125820386281173  0.6237825531005956  0.2536026598826928  1.0000
  C   C23       1.0  0.935722256574877  0.47887838691985474  0.2651250544650452  1.0000
  C   C24       1.0  0.9472010959819656  0.40699809892303795  0.1539029524875748  1.0000
  C   C25       1.0  0.9357223861506522  0.47887833687510595  0.03004267467787547  1.0000
  C   C26       1.0  0.9125820748968579  0.6237825588100168  0.016087744891287725  1.0000
  C   C27       1.0  0.9011236714206495  0.6955348625125657  0.128537395645119  1.0000
  Br  Br1       1.0  0.978675621963772  0.20990337855983454  0.17122977463090594  1.0000
  H   H14       1.0  0.9038725854222591  0.6783233898883283  0.5765673073540987  1.0000
  H   H15       1.0  0.9449338394875862  0.42119468445050456  0.36019537269625923  1.0000
  H   H16       1.0  0.944934142309071  0.42119474749286034  0.9451144944924583  1.0000
  H   H17       1.0  0.8832770084644679  0.8072905101018899  0.11871282318754517  1.0000
  H   H18       1.0  0.9038715103344098  0.6783227958023597  0.6835335983941699  1.0000
  Zn  Zn1       1.0  0.8285376237209955  0.6197064723712251  0.6280049023881811  1.0000
  Zn  Zn2       1.0  0.9966191608535226  0.6278576065493331  0.6416843322191697  1.0000
  C   C28       1.0  0.9126109837251287  0.6180343384645466  0.8719911749418283  1.0000
  C   C29       1.0  0.9125476265969177  0.6295316500337036  0.39769832710621356  1.0000
  C   C30       1.0  0.9111743694378895  0.887311682039855  0.6283162053724769  1.0000
  C   C31       1.0  0.9139841927638256  0.3602525701225445  0.6413733701384199  1.0000
  O   O1        1.0  0.9763221785132439  0.6345481175733825  0.4512494540584917  1.0000
  O   O2        1.0  0.9764064351485058  0.619203304653343  0.8288220505864201  1.0000
  O   O3        1.0  0.9752454910764788  0.8366481233679119  0.632052710921045  1.0000
  O   O4        1.0  0.9774830651754407  0.4171033063991638  0.6480186916605197  1.0000
  O   O5        1.0  0.8476736620410893  0.8304607697413824  0.6216705382718757  1.0000
  O   O6        1.0  0.8488345968754599  0.6130176845826525  0.8184397997994424  1.0000
  O   O7        1.0  0.8487503405589467  0.628362447224051  0.44086564265090633  1.0000
  O   O8        1.0  0.8499112272729858  0.4109176257294709  0.6376349776413268  1.0000
