data_image0
_chemical_formula_structural       NC9NC5H8C9H8C6ClH5Zn2C4O8
_chemical_formula_sum              "N2 C33 H21 Cl1 Zn2 O8"
_cell_length_a       17.807436237873137
_cell_length_b       9.275152443626249
_cell_length_c       10.302974078461048
_cell_angle_alpha    85.36323094855369
_cell_angle_beta     89.39214410348855
_cell_angle_gamma    88.96355956710404

_space_group_name_H-M_alt    "P 1"
_space_group_IT_number       1

loop_
  _space_group_symop_operation_xyz
  'x, y, z'

loop_
  _atom_site_type_symbol
  _atom_site_label
  _atom_site_symmetry_multiplicity
  _atom_site_fract_x
  _atom_site_fract_y
  _atom_site_fract_z
  _atom_site_occupancy
  N   N1        1.0  0.7154742362490676  0.5411300839636004  0.5526869398765335  1.0000
  C   C1        1.0  0.654682282926405  0.5020515301767716  0.541791392745274  1.0000
  C   C2        1.0  0.5790637746379376  0.453442112821544  0.5282385149469606  1.0000
  C   C3        1.0  0.5605575532431156  0.37413554307364416  0.42352346655487105  1.0000
  C   C4        1.0  0.48713524238102457  0.32681572725447894  0.4102822878243615  1.0000
  C   C5        1.0  0.4311682412155332  0.35838322999822014  0.5017250547184167  1.0000
  C   C6        1.0  0.3531399191990823  0.308222068578188  0.4877347509743455  1.0000
  C   C7        1.0  0.2914385027946717  0.3990131323376833  0.5133753127024414  1.0000
  C   C8        1.0  0.2178727075347283  0.3514678400744975  0.5001485302523458  1.0000
  C   C9        1.0  0.1551368362809875  0.44524768141767157  0.5261433351513283  1.0000
  N   N2        1.0  0.1047101501454637  0.5206401857859562  0.5470424527511273  1.0000
  C   C10       1.0  0.2054232851367389  0.21284499425877845  0.46125675911027786  1.0000
  C   C11       1.0  0.2662672512512179  0.12203854740979603  0.43560785955364545  1.0000
  C   C12       1.0  0.3397113226115237  0.16914569834932935  0.44863356893818973  1.0000
  C   C13       1.0  0.4503687389111602  0.43823879824483347  0.6066575080837435  1.0000
  C   C14       1.0  0.5238428151427339  0.48534717981557973  0.6197437622866382  1.0000
  H   H1        1.0  0.602821897765264  0.34916593046145805  0.35191408009662517  1.0000
  H   H2        1.0  0.473910886005973  0.2672014827451652  0.32757948020679906  1.0000
  H   H3        1.0  0.3005021589306328  0.5072488848498313  0.541897337432325  1.0000
  H   H4        1.0  0.1487605391513213  0.1750476176673288  0.45078602048024297  1.0000
  H   H5        1.0  0.2565100155378023  0.014713533967152026  0.40588291275756205  1.0000
  H   H6        1.0  0.3859702312307574  0.0961351644055799  0.429824501685681  1.0000
  H   H7        1.0  0.4088181422843649  0.46260978080246784  0.6795628764227635  1.0000
  H   H8        1.0  0.537602612611278  0.5463169071002714  0.7014009603472322  1.0000
  C   C15       1.0  0.9078801810499384  0.10736930266572431  0.5512222391307271  1.0000
  C   C16       1.0  0.8807861844019838  0.1915349670946771  0.4413198312366369  1.0000
  C   C17       1.0  0.8606736503030556  0.12715237292080217  0.32925117943116966  1.0000
  C   C18       1.0  0.8673393083525363  0.9774595453504865  0.3248648141212154  1.0000
  C   C19       1.0  0.8929646135762105  0.8916830478562126  0.43385638177867314  1.0000
  C   C20       1.0  0.9123113265463245  0.9543895604009661  0.5485183217954026  1.0000
  C   C21       1.0  0.8469908423944331  0.9113812079083006  0.20880372610134446  1.0000
  C   C22       1.0  0.8299537571160764  0.8560227094570276  0.11162073928488914  1.0000
  C   C23       1.0  0.8092826217626801  0.7888429449288903  0.9937062232518055  1.0000
  H   H9        1.0  0.015801415620594117  0.18333963596177316  0.8089390087037021  1.0000
  H   H10       1.0  0.8768298189894544  0.30826072106736446  0.44096882643299495  1.0000
  H   H11       1.0  0.8405929070443753  0.19444921486663747  0.24545914541455827  1.0000
  H   H12       1.0  0.896126838819196  0.7752065545578752  0.4301888028239538  1.0000
  H   H13       1.0  0.9825637909677619  0.6553919792831989  0.7248395938873995  1.0000
  H   H14       1.0  0.8230128451631095  0.6713983394939262  0.005635851004872849  1.0000
  H   H15       1.0  0.7481527647304252  0.8046434621509887  0.9768193251181687  1.0000
  H   H16       1.0  0.8410005486791209  0.8395218095643926  0.9092104454233647  1.0000
  C   C24       1.0  0.9100957575602978  0.530879434075594  0.16862780345530126  1.0000
  C   C25       1.0  0.8962476021864868  0.38177490527958935  0.17852909710087883  1.0000
  C   C26       1.0  0.8893765636861898  0.3077932972003008  0.06648505721760012  1.0000
  C   C27       1.0  0.8962476362036245  0.38177498496100903  0.9434211973826514  1.0000
  C   C28       1.0  0.9100957552550757  0.5308793597310284  0.9311128227941494  1.0000
  C   C29       1.0  0.9169523429997839  0.6047048326617201  0.04437204361703695  1.0000
  Cl  Cl1       1.0  0.8720769302206742  0.12152631852571494  0.08035766790756949  1.0000
  H   H17       1.0  0.9153125517401821  0.5870445137341489  0.4922010898435576  1.0000
  H   H18       1.0  0.8907398776274633  0.3224725517453395  0.27299230236650907  1.0000
  H   H19       1.0  0.8907399300032703  0.3224725284033758  0.8577913355972147  1.0000
  H   H20       1.0  0.9276324223790611  0.7196987223660389  0.03580754423228916  1.0000
  H   H21       1.0  0.9153124087572815  0.5870445084948639  0.5991734614753974  1.0000
  Zn  Zn1       1.0  0.8277992917160726  0.5352132937053553  0.5510655834068476  1.0000
  Zn  Zn2       1.0  0.9923850149797062  0.5265452199454093  0.54867451982172  1.0000
  C   C30       1.0  0.9100640129560734  0.5251340459451439  0.7870051657240091  1.0000
  C   C31       1.0  0.9101221005303985  0.536626192761088  0.31273503300947825  1.0000
  C   C32       1.0  0.9114698750486278  0.7942848775506133  0.5438560461319293  1.0000
  C   C33       1.0  0.9087161732115142  0.2674736313750097  0.5558842281644405  1.0000
  O   O1        1.0  0.9725903327889935  0.5352590767681962  0.3601913595993964  1.0000
  O   O2        1.0  0.9725125307083882  0.5199212065239278  0.7377337069494523  1.0000
  O   O3        1.0  0.9736469401447401  0.7372639512659991  0.5413890800037615  1.0000
  O   O4        1.0  0.9714558672446572  0.3179163453008811  0.5565358899856718  1.0000
  O   O5        1.0  0.8487283832861  0.7438421713094412  0.5432042140520148  1.0000
  O   O6        1.0  0.8475939829110565  0.5265011593075375  0.7395487662439415  1.0000
  O   O7        1.0  0.8476717847787227  0.541838979291857  0.3620048581705013  1.0000
  O   O8        1.0  0.8465373191773492  0.3244962375093434  0.5583494859253111  1.0000
