data_image0
_chemical_formula_structural       NC9NC5H8C7F3H5C6FH5Zn2C4O8
_chemical_formula_sum              "N2 C31 H18 F4 Zn2 O8"
_cell_length_a       17.807436237873137
_cell_length_b       9.27228830945605
_cell_length_c       9.275646106892307
_cell_angle_alpha    84.65403301377597
_cell_angle_beta     89.39821068290672
_cell_angle_gamma    87.81380667828488

_space_group_name_H-M_alt    "P 1"
_space_group_IT_number       1

loop_
  _space_group_symop_operation_xyz
  'x, y, z'

loop_
  _atom_site_type_symbol
  _atom_site_label
  _atom_site_symmetry_multiplicity
  _atom_site_fract_x
  _atom_site_fract_y
  _atom_site_fract_z
  _atom_site_occupancy
  N   N1        1.0  0.6989430787652859  0.5598765899944631  0.38841549776575235  1.0000
  C   C1        1.0  0.6385564448072454  0.5208873858840257  0.37636464021969407  1.0000
  C   C2        1.0  0.563442109167298  0.47238910988879135  0.36137468158904307  1.0000
  C   C3        1.0  0.5457343897217648  0.39424393961743265  0.24508063287692727  1.0000
  C   C4        1.0  0.47280286193450877  0.34703288440541824  0.2304351488558385  1.0000
  C   C5        1.0  0.4165325153182136  0.3775476889901692  0.33204980666398476  1.0000
  C   C6        1.0  0.3390244591121149  0.3275012735935696  0.3165760120554886  1.0000
  C   C7        1.0  0.2763814609169243  0.41808087207023603  0.3449372556048611  1.0000
  C   C8        1.0  0.20330880985696928  0.3706439392533538  0.3303081391535798  1.0000
  C   C9        1.0  0.1396002179404544  0.4642111657035153  0.35905843022898254  1.0000
  N   N2        1.0  0.0883915320071521  0.5394327294405123  0.3821728902548107  1.0000
  C   C10       1.0  0.1922971010471351  0.23234091530245826  0.28729108128491543  1.0000
  C   C11       1.0  0.2540828073252036  0.14174601694706968  0.2589205924962208  1.0000
  C   C12       1.0  0.3270382558648725  0.18874674651221013  0.27332686078774326  1.0000
  C   C13       1.0  0.4349288356387405  0.45623983916819744  0.44858468328624324  1.0000
  C   C14       1.0  0.5079142938198906  0.503241082270866  0.4630582628397426  1.0000
  H   H1        1.0  0.5882388877892396  0.3700984470390678  0.16550597634197195  1.0000
  H   H2        1.0  0.4601775725234368  0.2883389871391673  0.13858252334747334  1.0000
  H   H3        1.0  0.2843220231012478  0.5260887932891043  0.37647408661980375  1.0000
  H   H4        1.0  0.1360264058572911  0.19462915700954575  0.27571046601918914  1.0000
  H   H5        1.0  0.24543879513907277  0.03466403763584558  0.22604490071330074  1.0000
  H   H6        1.0  0.3740548740047067  0.11588478869116359  0.2525322785650057  1.0000
  H   H7        1.0  0.3931447204826569  0.4797707135777447  0.5296011627827817  1.0000
  H   H8        1.0  0.5210605507596613  0.5633042530332326  0.5537462125116723  1.0000
  C   C15       1.0  0.8958827500714381  0.1256900466142581  0.3874832654702307  1.0000
  C   C16       1.0  0.9315573427372323  0.2070421195879395  0.2729044476304916  1.0000
  C   C17       1.0  0.9598094496356224  0.14121154076610098  0.1534121097888128  1.0000
  C   C18       1.0  0.9521107769741454  0.9925093204859126  0.14430915588872062  1.0000
  C   C19       1.0  0.9191778566439004  0.90931129095345  0.26068131980022335  1.0000
  C   C20       1.0  0.8914591178425996  0.9736077048825651  0.38311761814282774  1.0000
  C   C21       1.0  0.9845587533508539  0.9206160447869068  0.017002764951327354  1.0000
  F   F1        1.0  0.9838755833566498  0.016569755821258747  0.8933645256521494  1.0000
  F   F2        1.0  0.9431710726782767  0.8027288243805166  0.9901514474010011  1.0000
  F   F3        1.0  0.05784590539928525  0.8738784182866616  0.04708570175811877  1.0000
  H   H9        1.0  0.7696118368106077  0.21212801573985907  0.6491365793484536  1.0000
  H   H10       1.0  0.9362977730506851  0.32304162426752914  0.2743220310176926  1.0000
  H   H11       1.0  0.9871678486614162  0.20716556769601846  0.06732082909749293  1.0000
  H   H12       1.0  0.916775838868635  0.7930331625767126  0.25747416852362015  1.0000
  H   H13       1.0  0.8565535180971935  0.8420269627316289  0.7332437006219348  1.0000
  C   C22       1.0  0.8935598911376705  0.5541722448154354  0.961438122649048  1.0000
  C   C23       1.0  0.9622876898815019  0.5656495935804071  0.03231837025582451  1.0000
  C   C24       1.0  0.03015474564870657  0.5636196378161258  0.9557766749157404  1.0000
  C   C25       1.0  0.03048665602304368  0.5499317776145405  0.8074666478155117  1.0000
  C   C26       1.0  0.9629238657758674  0.5407998505822773  0.7346231715681295  1.0000
  C   C27       1.0  0.8937819286155431  0.5451255111876852  0.8091627338980252  1.0000
  F   F4        1.0  0.09589506267595072  0.5731996192845656  0.026089921737287636  1.0000
  H   H14       1.0  0.7199204238645167  0.4460258413074749  0.07798805265025788  1.0000
  H   H15       1.0  0.963584372242513  0.5727594823958306  0.14818726965470175  1.0000
  H   H16       1.0  0.0831800536584546  0.5477694905678137  0.7483034911167232  1.0000
  H   H17       1.0  0.9646734995349153  0.5338090671127964  0.6186983078715818  1.0000
  H   H18       1.0  0.7761945795280223  0.47828800551268347  0.5365839308094071  1.0000
  Zn  Zn1       1.0  0.8113295109129396  0.5539729920383749  0.38662238359010903  1.0000
  Zn  Zn2       1.0  0.9760051461681927  0.5453244322085762  0.3839779312587257  1.0000
  C   C28       1.0  0.8937683109640737  0.5410840759259639  0.6489542723120736  1.0000
  C   C29       1.0  0.893568134903358  0.5582150740056684  0.12164614594954481  1.0000
  C   C30       1.0  0.8922898882887267  0.8133947892080773  0.37819105436322653  1.0000
  C   C31       1.0  0.8950465104559862  0.28590262827922297  0.3924094506849849  1.0000
  O   O1        1.0  0.956064479811549  0.5562835024771224  0.17440989863882272  1.0000
  O   O2        1.0  0.9562569684531224  0.5364505059432605  0.594183031598231  1.0000
  O   O3        1.0  0.9550622813958447  0.7563448789848932  0.3755398232093454  1.0000
  O   O4        1.0  0.957259110593956  0.3363891438694644  0.3930529996524288  1.0000
  O   O5        1.0  0.8300754902914537  0.7629082833304683  0.37754731609122727  1.0000
  O   O6        1.0  0.8312701682757279  0.5430156456861492  0.5961904385883416  1.0000
  O   O7        1.0  0.8310776794920159  0.5628486104263544  0.1764155705100232  1.0000
  O   O8        1.0  0.8322723103535712  0.3429542403377033  0.39505877979373083  1.0000
