data_image0
_chemical_formula_structural       NC8NC6H8C6ClH5C6NCOH7Zn2C4O8
_chemical_formula_sum              "N3 C31 H20 Cl1 O9 Zn2"
_cell_length_a       17.457602349358154
_cell_length_b       10.30297070629231
_cell_length_c       10.29962270195845
_cell_angle_alpha    85.57966836144159
_cell_angle_beta     92.8939802036364
_cell_angle_gamma    91.68807172504815

_space_group_name_H-M_alt    "P 1"
_space_group_IT_number       1

loop_
  _space_group_symop_operation_xyz
  'x, y, z'

loop_
  _atom_site_type_symbol
  _atom_site_label
  _atom_site_symmetry_multiplicity
  _atom_site_fract_x
  _atom_site_fract_y
  _atom_site_fract_z
  _atom_site_occupancy
  N   N1        1.0  0.7221620459320028  0.45189661596318476  0.6265267032902855  1.0000
  C   C1        1.0  0.6610820796048115  0.40598271377725337  0.615911138369331  1.0000
  C   C2        1.0  0.5850960202876592  0.3488715352096714  0.6027149174232851  1.0000
  C   C3        1.0  0.5265817320675059  0.389045678226829  0.6776114631911603  1.0000
  C   C4        1.0  0.452033873179382  0.33405228270864296  0.6650296710638053  1.0000
  C   C5        1.0  0.3899295352612662  0.37647034153008585  0.7443479535951452  1.0000
  C   C6        1.0  0.3153721955519408  0.3949138981853846  0.6885852888162578  1.0000
  C   C7        1.0  0.2568579251539569  0.43490421191242046  0.7635897866257222  1.0000
  C   C8        1.0  0.1808620059686237  0.45395267603746836  0.7056116944473607  1.0000
  N   N2        1.0  0.11977420347971342  0.46926126361827447  0.6589974593812646  1.0000
  C   C9        1.0  0.2724089291263392  0.45669420347451317  0.8948654591206258  1.0000
  C   C10       1.0  0.34618163904133  0.4386396383072291  0.95101571615845  1.0000
  C   C11       1.0  0.4046843921574556  0.3988294752086523  0.8764689327343922  1.0000
  C   C12       1.0  0.4372886739895129  0.23820706014627135  0.5761184351519999  1.0000
  C   C13       1.0  0.4957913206521204  0.1983116419145734  0.5016218866534017  1.0000
  C   C14       1.0  0.5695545191757544  0.25341756248767844  0.5147536202552425  1.0000
  H   H1        1.0  0.5389385305650348  0.4642381375717053  0.7442411679682637  1.0000
  H   H2        1.0  0.3030076608428734  0.3799139905914404  0.5865623531854851  1.0000
  H   H3        1.0  0.22755922241966614  0.4875868418560976  0.9537004052141049  1.0000
  H   H4        1.0  0.3580323912924407  0.45519657471785524  0.05266539696302508  1.0000
  H   H5        1.0  0.46117883361806034  0.3838581156703338  0.9225746865536564  1.0000
  H   H6        1.0  0.3808019787836934  0.19288262255946043  0.5654667539077132  1.0000
  H   H7        1.0  0.4839481025443007  0.12423487677945921  0.4337938788329363  1.0000
  H   H8        1.0  0.6144043676333321  0.22165568113720857  0.45642979134944817  1.0000
  C   C15       1.0  0.9209717794331023  0.0793316386710945  0.642767981305405  1.0000
  C   C16       1.0  0.00019959777195399653  0.07965697587754739  0.6742515090390018  1.0000
  C   C17       1.0  0.03951032659048237  0.9628615555750059  0.6898727044135655  1.0000
  C   C18       1.0  0.00019959714775219517  0.8445490071600059  0.674251447912523  1.0000
  C   C19       1.0  0.9209717876351983  0.8418165808667841  0.642768056315624  1.0000
  C   C20       1.0  0.8817440783006197  0.9598171676654444  0.6271797319191676  1.0000
  Cl  Cl1       1.0  0.13848474818265277  0.9647714961705086  0.729203042143661  1.0000
  H   H9        1.0  0.8911280477512102  0.4065122079193597  0.6309079607487709  1.0000
  H   H10       1.0  0.03171042656628953  0.17031163486198064  0.6867731616647015  1.0000
  H   H11       1.0  0.03171039620758065  0.7551104406769147  0.6867730658825442  1.0000
  H   H12       1.0  0.8206411804834681  0.9586379305242743  0.6028986470779778  1.0000
  H   H13       1.0  0.891128044056616  0.5134842411636168  0.6309082056337829  1.0000
  C   C21       1.0  0.9208987847538499  0.46044434211055507  0.2614052490918637  1.0000
  C   C22       1.0  0.8405076015346382  0.4669488971098732  0.2527466139089205  1.0000
  C   C23       1.0  0.8001476614349308  0.4723578659983134  0.131433381854404  1.0000
  C   C24       1.0  0.8406772437889677  0.46723457102716215  0.01758827512199268  1.0000
  C   C25       1.0  0.9210447974919568  0.4607038379664605  0.024130699002573364  1.0000
  C   C26       1.0  0.9607200361181386  0.45786769019098195  0.14650733137709993  1.0000
  N   N3        1.0  0.7177838056146786  0.47699386781665476  0.12658982333813773  1.0000
  C   C27       1.0  0.6727738518031375  0.5458890693450678  0.024840592868804023  1.0000
  O   O1        1.0  0.7036798560123388  0.6222846915622662  0.9402545655350352  1.0000
  H   H14       1.0  0.07248217050538774  0.4467824639740463  0.48509227457157933  1.0000
  H   H15       1.0  0.8088290854241976  0.46894372034828447  0.3403152689638054  1.0000
  H   H16       1.0  0.8095382712504235  0.46562959227999  0.9241931031911874  1.0000
  H   H17       1.0  0.022693752922050336  0.4528702348937015  0.1523048552813724  1.0000
  H   H18       1.0  0.951816665833578  0.4562247145116014  0.6993409333215994  1.0000
  H   H19       1.0  0.6886515612894119  0.4353551301731635  0.20630806993673523  1.0000
  H   H20       1.0  0.6109003704230659  0.5350897570848265  0.022682566320665343  1.0000
  Zn  Zn1       1.0  0.8369043271725678  0.45690419913735636  0.6359045604383227  1.0000
  Zn  Zn2       1.0  0.0050319100243088055  0.464243039633105  0.6496302345883174  1.0000
  C   C28       1.0  0.9210154859344056  0.4554826854716578  0.8799591523123653  1.0000
  C   C29       1.0  0.9209225872349016  0.4656662715797393  0.4055759200626623  1.0000
  C   C30       1.0  0.920966859481051  0.6976887343548841  0.6375925946382504  1.0000
  C   C31       1.0  0.9209711563312682  0.22345866041023554  0.647942542290614  1.0000
  O   O2        1.0  0.9847341170527727  0.4701981865971647  0.45916973606355826  1.0000
  O   O3        1.0  0.9848089012219509  0.45651980104365886  0.8367824315608077  1.0000
  O   O4        1.0  0.9847687749021522  0.6521042115460203  0.6410696512369791  1.0000
  O   O5        1.0  0.9847741859833758  0.2746137828446886  0.6548824143306513  1.0000
  O   O6        1.0  0.8571619938398065  0.6465334534227982  0.6306523760052589  1.0000
  O   O7        1.0  0.8572021201428998  0.45095060270373866  0.8263650870845205  1.0000
  O   O8        1.0  0.8571273357258423  0.4646289424866987  0.44875083021600193  1.0000
  O   O9        1.0  0.857167404671947  0.26904452948136237  0.6444636058491005  1.0000
