data_image0
_chemical_formula_structural       NC9NC5H8C6H6C6BrH5Zn2C4O8
_chemical_formula_sum              "N2 C30 H19 Br1 Zn2 O8"
_cell_length_a       17.807436237873137
_cell_length_b       10.681118228259551
_cell_length_c       10.302972455390005
_cell_angle_alpha    85.56070709788946
_cell_angle_beta     89.39215201277248
_cell_angle_gamma    88.3900060031841

_space_group_name_H-M_alt    "P 1"
_space_group_IT_number       1

loop_
  _space_group_symop_operation_xyz
  'x, y, z'

loop_
  _atom_site_type_symbol
  _atom_site_label
  _atom_site_symmetry_multiplicity
  _atom_site_fract_x
  _atom_site_fract_y
  _atom_site_fract_z
  _atom_site_occupancy
  N   N1        1.0  0.7074117460823325  0.3382044841060956  0.5576064676701602  1.0000
  C   C1        1.0  0.6468242301909953  0.30427152720052586  0.5465861685167839  1.0000
  C   C2        1.0  0.5714600195532672  0.26206266570279535  0.5328781129413658  1.0000
  C   C3        1.0  0.5533686798638928  0.1931986376180257  0.4279098785728064  1.0000
  C   C4        1.0  0.4801939201650873  0.15210957173669737  0.4145176389042686  1.0000
  C   C5        1.0  0.4240617817550665  0.1795204868914546  0.5060611924574661  1.0000
  C   C6        1.0  0.3462958752577305  0.13596420438170376  0.49191075724124933  1.0000
  C   C7        1.0  0.2841194901286156  0.21480052139605044  0.5178411549439084  1.0000
  C   C8        1.0  0.2108024256063915  0.17351566827290799  0.5044625917700147  1.0000
  C   C9        1.0  0.1475759499549748  0.25494722103399137  0.5307567737649055  1.0000
  N   N2        1.0  0.0967548518258175  0.3204125556872768  0.551896569837852  1.0000
  C   C10       1.0  0.1990782014317178  0.05314573136396272  0.46512828936518247  1.0000
  C   C11       1.0  0.2603972167464184  0.9742960567999517  0.43918950472532736  1.0000
  C   C12       1.0  0.333594849476442  0.015200460049293207  0.4523655961257884  1.0000
  C   C13       1.0  0.4428445256930874  0.24886122510896724  0.611248584398717  1.0000
  C   C14       1.0  0.516072156861139  0.28976669695236645  0.6244852245552011  1.0000
  H   H1        1.0  0.5957636465277655  0.17151684869662143  0.35622077087646153  1.0000
  H   H2        1.0  0.46728142741722517  0.10034491917437349  0.33162451239546287  1.0000
  H   H3        1.0  0.2926169163974423  0.30878452964325565  0.5467087047233758  1.0000
  H   H4        1.0  0.142613190470772  0.020325255001294895  0.45453688867616227  1.0000
  H   H5        1.0  0.2512014463010396  0.881102867630366  0.409121940048504  1.0000
  H   H6        1.0  0.3802357090466922  0.9518034543281625  0.43332345467415334  1.0000
  H   H7        1.0  0.4011664387419852  0.2700232075861124  0.6842317631659289  1.0000
  H   H8        1.0  0.5295129994523443  0.3427083514887703  0.7063370684539345  1.0000
  C   C15       1.0  0.9020868973722765  0.9615583658052108  0.5547570731427702  1.0000
  C   C16       1.0  0.9350670201306812  0.885538000414876  0.6573765801350093  1.0000
  C   C17       1.0  0.9350670086447359  0.7546557627639561  0.6573765209477058  1.0000
  C   C18       1.0  0.9020868847588249  0.6970487703384337  0.5547571294497178  1.0000
  C   C19       1.0  0.8691340630554049  0.7730564883647371  0.45222242386728984  1.0000
  C   C20       1.0  0.869134074503733  0.9039487459404258  0.45222247639082336  1.0000
  H   H9        1.0  0.8687348635349587  0.269578575894857  0.45098150660355074  1.0000
  H   H10       1.0  0.9609184408328597  0.9271322831051713  0.7378145519821062  1.0000
  H   H11       1.0  0.9609183484659367  0.6986282587303383  0.7378145304039365  1.0000
  H   H12       1.0  0.843279271687046  0.7315079027570187  0.37177394923644425  1.0000
  H   H13       1.0  0.8432792519945109  0.9599323426908065  0.371773938968762  1.0000
  H   H14       1.0  0.8687351401331783  0.40764921236558627  0.4509811513563369  1.0000
  C   C21       1.0  0.902086863099593  0.32930354471350864  0.173514550198004  1.0000
  C   C22       1.0  0.9239903744620528  0.2015959635333595  0.18214437549410412  1.0000
  C   C23       1.0  0.9348557397708558  0.13824610625668132  0.06948739896052114  1.0000
  C   C24       1.0  0.9239905010840185  0.2015959088684327  0.9470619830358196  1.0000
  C   C25       1.0  0.9020868986443957  0.3293035465163263  0.9359996317512227  1.0000
  C   C26       1.0  0.8912408770128499  0.3925406083077827  0.04988160246604201  1.0000
  Br  Br1       1.0  0.9646481345305302  0.9645417297234501  0.08287984319890107  1.0000
  H   H15       1.0  0.8938428896527983  0.3773716859810532  0.4975679053104276  1.0000
  H   H16       1.0  0.9327096494628738  0.150757917539448  0.2760632257813773  1.0000
  H   H17       1.0  0.9327099463201075  0.1507579459265851  0.8609823187985235  1.0000
  H   H18       1.0  0.8743480104092236  0.491033593805545  0.042287894147794436  1.0000
  H   H19       1.0  0.8938418338081223  0.3773712640066633  0.6045342968080964  1.0000
  Zn  Zn1       1.0  0.8197677549335356  0.3330667763527606  0.555966222799785  1.0000
  Zn  Zn2       1.0  0.9843988247783866  0.3255400553054797  0.5535474877817823  1.0000
  C   C27       1.0  0.9020852240497035  0.3243147107240272  0.7918736647419538  1.0000
  C   C28       1.0  0.9020831534283429  0.33429361884614184  0.31764014685143716  1.0000
  C   C29       1.0  0.9020830124255212  0.5580255794405209  0.5495837180684242  1.0000
  C   C30       1.0  0.9020853088754971  0.10058124811476299  0.5599301635658869  1.0000
  O   O1        1.0  0.9645585414530348  0.33310651848397566  0.36509211635751204  1.0000
  O   O2        1.0  0.9645610087336056  0.3197882592317507  0.742585557600699  1.0000
  O   O3        1.0  0.9645583806042943  0.5085127799026707  0.5469347237942261  1.0000
  O   O4        1.0  0.9645611134049076  0.14438200933987644  0.5607428536469325  1.0000
  O   O5        1.0  0.8396054101265102  0.5142248248882275  0.5487708577532013  1.0000
  O   O6        1.0  0.8396080382523454  0.3255018088020558  0.7444216223373217  1.0000
  O   O7        1.0  0.8396055710216459  0.33882002441211645  0.3669266202100703  1.0000
  O   O8        1.0  0.8396081429704527  0.1500955063110605  0.5625774548351103  1.0000
