data_image0
_chemical_formula_structural       NC8NC6H8C7H8C7H8Zn2C4O8
_chemical_formula_sum              "N2 C32 H24 Zn2 O8"
_cell_length_a       17.457602349358154
_cell_length_b       9.274341958901593
_cell_length_c       9.274345330872308
_cell_angle_alpha    85.08672685616447
_cell_angle_beta     92.44621323531219
_cell_angle_gamma    91.07026823974832

_space_group_name_H-M_alt    "P 1"
_space_group_IT_number       1

loop_
  _space_group_symop_operation_xyz
  'x, y, z'

loop_
  _atom_site_type_symbol
  _atom_site_label
  _atom_site_symmetry_multiplicity
  _atom_site_fract_x
  _atom_site_fract_y
  _atom_site_fract_z
  _atom_site_occupancy
  N   N1        1.0  0.7193222690969627  0.6251528994547866  0.47247429905578775  1.0000
  C   C1        1.0  0.6585855131877426  0.5742517487309888  0.4607373141743021  1.0000
  C   C2        1.0  0.5830263263645113  0.5109369790548146  0.44614709787974305  1.0000
  C   C3        1.0  0.5239041342614804  0.554878052453657  0.529299586597668  1.0000
  C   C4        1.0  0.4497667322094371  0.4939099679295862  0.5153893610481945  1.0000
  C   C5        1.0  0.38701941833156844  0.5403031891114407  0.6034511552794666  1.0000
  C   C6        1.0  0.3126056433951364  0.5612961995762396  0.5414830931130032  1.0000
  C   C7        1.0  0.2534841378592015  0.6050321070973472  0.624755726554044  1.0000
  C   C8        1.0  0.1776383042997215  0.6267171578583586  0.5603258540941933  1.0000
  N   N2        1.0  0.1166712107055223  0.6441448535626653  0.5085244121596966  1.0000
  C   C9        1.0  0.2682804032735307  0.6280405447450228  0.7705610215601635  1.0000
  C   C10       1.0  0.3419052451354407  0.6074760708503535  0.8329591812960038  1.0000
  C   C11       1.0  0.4010119360684333  0.5639360971934011  0.7501947959124582  1.0000
  C   C12       1.0  0.4360509429218053  0.3882611248372563  0.4167356883735216  1.0000
  C   C13       1.0  0.49515783675203107  0.3446259991623324  0.3340272113667342  1.0000
  C   C14       1.0  0.5685072809197933  0.40571406511201036  0.34854822029717125  1.0000
  H   H1        1.0  0.535467981996933  0.6377900546129598  0.6032261521130717  1.0000
  H   H2        1.0  0.3008153017971891  0.5455635579823312  0.42816589011598616  1.0000
  H   H3        1.0  0.22295741532729618  0.6618185350146644  0.8358822271129804  1.0000
  H   H4        1.0  0.3531736031355487  0.6249415390400253  0.9458598552807727  1.0000
  H   H5        1.0  0.4573858973561555  0.5468875949418825  0.8014309667492348  1.0000
  H   H6        1.0  0.379903860138702  0.33801503579998715  0.40495786809218814  1.0000
  H   H7        1.0  0.48410605705758514  0.262964127876552  0.25876812101626245  1.0000
  H   H8        1.0  0.6138335696944538  0.3709659350772967  0.28379585887659875  1.0000
  C   C15       1.0  0.9204369545686183  0.21118787614566803  0.49096799205483044  1.0000
  C   C16       1.0  0.930035086846978  0.2960027524336488  0.35969620366236454  1.0000
  C   C17       1.0  0.9319996886736266  0.2321429715667751  0.22913279423787158  1.0000
  C   C18       1.0  0.9235719032743542  0.08212321880277806  0.22662521806468794  1.0000
  C   C19       1.0  0.9163664720103036  0.9958230001471707  0.35704619599700793  1.0000
  C   C20       1.0  0.9155638475676824  0.05809898274081737  0.49004390428825473  1.0000
  C   C21       1.0  0.9273800663860975  0.01338897831985375  0.08647230934704075  1.0000
  H   H9        1.0  0.8552863623012212  0.28367282624815826  0.8194247953065994  1.0000
  H   H10       1.0  0.9343904163561365  0.41283763994698086  0.357610713492333  1.0000
  H   H11       1.0  0.9392868881910806  0.3001343135397625  0.12959851385914245  1.0000
  H   H12       1.0  0.9131324025327068  0.8791785840361602  0.35491029784958594  1.0000
  H   H13       1.0  0.8747425444211521  0.7568168993623585  0.7133453311897318  1.0000
  H   H14       1.0  0.9877704934365944  0.9869093695784451  0.06831073485697692  1.0000
  H   H15       1.0  0.905386775343498  0.08784427888820656  0.9944125739418368  1.0000
  H   H16       1.0  0.8919836893107567  0.9124809608385054  0.08903364920899226  1.0000
  C   C22       1.0  0.919716224574766  0.6379686893231544  0.0668573005575488  1.0000
  C   C23       1.0  0.8734797928151905  0.7373598816348381  0.1278641940052252  1.0000
  C   C24       1.0  0.8227262595154577  0.8249352636357934  0.041174671126385176  1.0000
  C   C25       1.0  0.8164293099888955  0.8140232294657717  0.8916651996094038  1.0000
  C   C26       1.0  0.8638312603188583  0.718743323575324  0.8287574561688089  1.0000
  C   C27       1.0  0.9162845722985126  0.6313181995357977  0.9141545259480881  1.0000
  C   C28       1.0  0.7630164145990371  0.9105589152335749  0.798234047485221  1.0000
  H   H17       1.0  0.00954395078785697  0.3280845487343733  0.20352226723502298  1.0000
  H   H18       1.0  0.8753875075218217  0.7451913451418364  0.24384986310735735  1.0000
  H   H19       1.0  0.7876744293754472  0.900311085752997  0.09111290940687056  1.0000
  H   H20       1.0  0.8609475463988249  0.715316817172102  0.7121056397091445  1.0000
  H   H21       1.0  0.9795363384200848  0.42580765378518515  0.6561163757260022  1.0000
  H   H22       1.0  0.7937515771416903  0.012176707567292944  0.7618415521705764  1.0000
  H   H23       1.0  0.7125325602403532  0.937527805728007  0.8592120281659392  1.0000
  H   H24       1.0  0.7417830576389611  0.8562391634271691  0.7017363367439509  1.0000
  Zn  Zn1       1.0  0.8339885789826855  0.6306296346875586  0.48288591696343786  1.0000
  Zn  Zn2       1.0  0.0020049067623493233  0.6386562025884113  0.4981246184346917  1.0000
  C   C29       1.0  0.9169645901677193  0.6268304882913871  0.754003350724094  1.0000
  C   C30       1.0  0.9190307192677218  0.6424572549992282  0.22700749069260162  1.0000
  C   C31       1.0  0.9165043202983811  0.8980597051262251  0.4844692852666961  1.0000
  C   C32       1.0  0.9194909414621353  0.37122630230654363  0.49654162975519145  1.0000
  O   O1        1.0  0.9825620143910162  0.6470034082544736  0.286538372147765  1.0000
  O   O2        1.0  0.9809538081374419  0.6283752297546419  0.70603787698135  1.0000
  O   O3        1.0  0.9805812687884528  0.8473961996739914  0.4883871325313407  1.0000
  O   O4        1.0  0.9829344967861563  0.4279824467608304  0.5041890032166627  1.0000
  O   O5        1.0  0.8530589316231734  0.8413033877776954  0.476821526973656  1.0000
  O   O6        1.0  0.8534314613113824  0.6222841509787478  0.6944721926106627  1.0000
  O   O7        1.0  0.8550396749299795  0.6409122928443334  0.2749709533342246  1.0000
  O   O8        1.0  0.8554121569432634  0.42189132018753916  0.4926216925764233  1.0000
