data_image0
_chemical_formula_structural       NC9NC5H8C7OH6C7NH5Zn2C4O8
_chemical_formula_sum              "N3 C32 H19 O9 Zn2"
_cell_length_a       17.807436237873137
_cell_length_b       9.274078303013075
_cell_length_c       10.302823150593486
_cell_angle_alpha    85.7362338049235
_cell_angle_beta     89.3921433004221
_cell_angle_gamma    87.81002060722456

_space_group_name_H-M_alt    "P 1"
_space_group_IT_number       1

loop_
  _space_group_symop_operation_xyz
  'x, y, z'

loop_
  _atom_site_type_symbol
  _atom_site_label
  _atom_site_symmetry_multiplicity
  _atom_site_fract_x
  _atom_site_fract_y
  _atom_site_fract_z
  _atom_site_occupancy
  N   N1        1.0  0.6992613553624749  0.5413835144508632  0.5619629614318826  1.0000
  C   C1        1.0  0.6388805136928406  0.5022985342838535  0.5508315042813898  1.0000
  C   C2        1.0  0.5637733830267558  0.4536811232193909  0.5369851803986707  1.0000
  C   C3        1.0  0.5461014781090885  0.37436151146968144  0.4317901628063032  1.0000
  C   C4        1.0  0.4731769780877925  0.32703391401322546  0.418263322376873  1.0000
  C   C5        1.0  0.4168778818642165  0.35860660817679557  0.5098978670869727  1.0000
  C   C6        1.0  0.3393772620269003  0.30843719786669843  0.4956047495958209  1.0000
  C   C7        1.0  0.2767207113918258  0.3992431920130546  0.5217934050148416  1.0000
  C   C8        1.0  0.203655099014629  0.3516900810336856  0.5082796008379513  1.0000
  C   C9        1.0  0.1399326511911118  0.4454853442602178  0.5348405351088485  1.0000
  N   N2        1.0  0.0887128257488669  0.5208902467557766  0.5561947815725399  1.0000
  C   C10       1.0  0.1926640076408347  0.21304443900246617  0.4685509856044303  1.0000
  C   C11       1.0  0.2544632698181856  0.1222230592368978  0.44235389943268855  1.0000
  C   C12       1.0  0.3274117676021684  0.16933795684105446  0.45566398440966704  1.0000
  C   C13       1.0  0.4352382875439609  0.4384753087069537  0.6153136047977199  1.0000
  C   C14       1.0  0.5082167772523141  0.48559143714485464  0.6286842429040462  1.0000
  H   H1        1.0  0.5886285068490023  0.34938779249267227  0.3600290923715219  1.0000
  H   H2        1.0  0.4605797721393335  0.2674098659036468  0.3351996665235535  1.0000
  H   H3        1.0  0.2846457128363449  0.5074967436466913  0.5509688047638721  1.0000
  H   H4        1.0  0.1363988951511153  0.17524084671771667  0.4578520721758206  1.0000
  H   H5        1.0  0.2458351077103359  0.014880396437962906  0.41198105423962406  1.0000
  H   H6        1.0  0.3744387568665674  0.09631541648341524  0.4364141886979076  1.0000
  H   H7        1.0  0.3934313043563219  0.4628502991898531  0.6883670647241331  1.0000
  H   H8        1.0  0.521335164444387  0.5465711909321962  0.7107104511462665  1.0000
  C   C15       1.0  0.8962305210719429  0.10755140248009698  0.5578814770525937  1.0000
  C   C16       1.0  0.8817003956063159  0.19178028956377546  0.4408997301088795  1.0000
  C   C17       1.0  0.8606774363989682  0.12778432174136967  0.3284487380603367  1.0000
  C   C18       1.0  0.8539849187647122  0.9774928397399778  0.33291051111918213  1.0000
  C   C19       1.0  0.8693606877133411  0.8921608555710228  0.4474635125281463  1.0000
  C   C20       1.0  0.891750908917071  0.954710893956752  0.5602874333023236  1.0000
  C   C21       1.0  0.845195860530624  0.21951667839690003  0.20785028394355787  1.0000
  O   O1        1.0  0.8258823823225567  0.1652359396838996  0.10534029364998432  1.0000
  H   H9        1.0  0.8939190976166519  0.18430082538972337  0.877565732509854  1.0000
  H   H10       1.0  0.8850616773037222  0.30846902922240527  0.438049781838721  1.0000
  H   H11       1.0  0.8375467710107813  0.9255062774361023  0.2474455073282713  1.0000
  H   H12       1.0  0.8654436056189109  0.7759298284492212  0.44682703514923205  1.0000
  H   H13       1.0  0.8934843317208723  0.6557293380901154  0.7749713209927029  1.0000
  H   H14       1.0  0.8503835212402946  0.3355582837970197  0.20640923995655536  1.0000
  C   C22       1.0  0.8939907180029922  0.5311311778744576  0.17783635945538379  1.0000
  C   C23       1.0  0.8151874131397528  0.5457298206104142  0.1772029257851082  1.0000
  C   C24       1.0  0.7759820267821754  0.5529926645726468  0.05978527847805393  1.0000
  C   C25       1.0  0.8151873990253671  0.5457297271909276  0.9419019318854915  1.0000
  C   C26       1.0  0.8939907175939172  0.5311311704043262  0.9403325260556747  1.0000
  C   C27       1.0  0.9329806309655648  0.5239080921490016  0.058852869486377024  1.0000
  C   C28       1.0  0.6951971140925858  0.5679581784131  0.06026501063803269  1.0000
  N   N3        1.0  0.630272438998321  0.5799857381565896  0.06065052436618057  1.0000
  H   H15       1.0  0.923839769588118  0.5256018756160921  0.5053985184019834  1.0000
  H   H16       1.0  0.7841083928798827  0.5514873381007221  0.2678117460382792  1.0000
  H   H17       1.0  0.784108423245361  0.5514872303271967  0.8516622087974959  1.0000
  H   H18       1.0  0.9937509010187137  0.5126501693037828  0.05849200779947794  1.0000
  H   H19       1.0  0.9238397456346706  0.5256016453890793  0.6124158178096839  1.0000
  Zn  Zn1       1.0  0.8116486562602582  0.5354657511898555  0.5603058868058033  1.0000
  Zn  Zn2       1.0  0.9763255688279604  0.5267962519847644  0.5578624960350438  1.0000
  C   C29       1.0  0.8940194105968806  0.5253848465414102  0.7961881200456655  1.0000
  C   C30       1.0  0.8939566031342187  0.5368788819723587  0.3219803687082958  1.0000
  C   C31       1.0  0.8925937722601699  0.7945799385669978  0.5546591531311518  1.0000
  C   C32       1.0  0.8953821944421202  0.26768205988170424  0.563509400751498  1.0000
  O   O2        1.0  0.956439217246942  0.5355115412848206  0.36942914304988483  1.0000
  O   O3        1.0  0.956522768512742  0.5201711497560375  0.7468844918273014  1.0000
  O   O4        1.0  0.9553707050767383  0.7375496353544  0.5518481589458413  1.0000
  O   O5        1.0  0.9575912244353099  0.318133068963397  0.5644653794505987  1.0000
  O   O6        1.0  0.8303829444567523  0.7441289371712683  0.5537030042172335  1.0000
  O   O7        1.0  0.8315349987254089  0.5267521845980165  0.7487392727969904  1.0000
  O   O8        1.0  0.8314514477754242  0.5420925258585811  0.3712823629701216  1.0000
  O   O9        1.0  0.8326034550152712  0.32471404322026354  0.5663186966785669  1.0000
