data_image0
_chemical_formula_structural       NC9NC5H8C6ClH5C6SCH8Zn2C4O8
_chemical_formula_sum              "N2 C31 H21 Cl1 S1 Zn2 O8"
_cell_length_a       17.807436237873137
_cell_length_b       10.30297070629231
_cell_length_c       10.302812801239593
_cell_angle_alpha    85.56070246902202
_cell_angle_beta     89.39214003622364
_cell_angle_gamma    88.39001192287228

_space_group_name_H-M_alt    "P 1"
_space_group_IT_number       1

loop_
  _space_group_symop_operation_xyz
  'x, y, z'

loop_
  _atom_site_type_symbol
  _atom_site_label
  _atom_site_symmetry_multiplicity
  _atom_site_fract_x
  _atom_site_fract_y
  _atom_site_fract_z
  _atom_site_occupancy
  N   N1        1.0  0.7074120028736892  0.3873203457347323  0.5575840564694043  1.0000
  C   C1        1.0  0.6468244861983441  0.35214195588124797  0.5465635878081305  1.0000
  C   C2        1.0  0.5714602745853987  0.3083839129505679  0.532855321383291  1.0000
  C   C3        1.0  0.5533689432452185  0.23699238861899663  0.42788546254602444  1.0000
  C   C4        1.0  0.480194182602827  0.1943952408888836  0.4144930168800238  1.0000
  C   C5        1.0  0.4240620348812915  0.22281220890930586  0.5060379884157642  1.0000
  C   C6        1.0  0.3462961273781819  0.17765729090572013  0.49188733554512387  1.0000
  C   C7        1.0  0.2841197440312022  0.2593871178062377  0.5178181321334514  1.0000
  C   C8        1.0  0.210802678551571  0.21658699690047944  0.5044393631817254  1.0000
  C   C9        1.0  0.1475762047999004  0.30100731186375085  0.5307339496003447  1.0000
  N   N2        1.0  0.0967551081978759  0.36887540455280643  0.5518740708189305  1.0000
  C   C10       1.0  0.1990784516249349  0.09179915189514976  0.46510445573025505  1.0000
  C   C11       1.0  0.260397465157679  0.010055477186273754  0.4391652720752439  1.0000
  C   C12       1.0  0.3335950988458157  0.05246118466339755  0.4523415661297663  1.0000
  C   C13       1.0  0.44284477047339  0.2946979399455587  0.6112270082043954  1.0000
  C   C14       1.0  0.5160724025923351  0.33710475523475836  0.6244638519534886  1.0000
  H   H1        1.0  0.5957639171876503  0.21451482084389584  0.35619524441503514  1.0000
  H   H2        1.0  0.46728169661104696  0.14073068560383573  0.3315986074307946  1.0000
  H   H3        1.0  0.2926171726706917  0.35682059799141075  0.5466861257384035  1.0000
  H   H4        1.0  0.1426134398975498  0.0577740736809349  0.45451289213851576  1.0000
  H   H5        1.0  0.2512016925352216  0.9134418413725534  0.40909724494025745  1.0000
  H   H6        1.0  0.3802359567651286  0.9867373342180663  0.4332991319684396  1.0000
  H   H7        1.0  0.4011666760556792  0.31663662289217176  0.6842113174863722  1.0000
  H   H8        1.0  0.5295132386259566  0.391989511762032  0.7063169626054921  1.0000
  C   C15       1.0  0.902087131084353  0.996850273236373  0.5547346324442575  1.0000
  C   C16       1.0  0.9796625746790988  0.9900321584867698  0.5786032743015272  1.0000
  C   C17       1.0  0.018153439269563698  0.8696923480162613  0.5904461665759724  1.0000
  C   C18       1.0  0.9796625740793313  0.7549241898451732  0.5786032132521677  1.0000
  C   C19       1.0  0.9020871391019315  0.7593352146693576  0.5547347066459583  1.0000
  C   C20       1.0  0.8636775625640924  0.8808727063529763  0.5429167060659466  1.0000
  Cl  Cl1       1.0  0.11506365113527672  0.8626784151787386  0.6202636975810252  1.0000
  H   H9        1.0  0.87286582016749  0.3267216559707866  0.5457430062451745  1.0000
  H   H10       1.0  0.010516213901627491  0.07784569305992606  0.5880963017841432  1.0000
  H   H11       1.0  0.010516184191778466  0.6626445016391468  0.5880962089434265  1.0000
  H   H12       1.0  0.8038490263001089  0.8852027161521407  0.5245084523095671  1.0000
  H   H13       1.0  0.8728658165037547  0.4336936894685873  0.5457432514159886  1.0000
  C   C21       1.0  0.9020871655579765  0.3780927320850702  0.17348618539386496  1.0000
  C   C22       1.0  0.8767510567285058  0.5087621038873185  0.16266047863561872  1.0000
  C   C23       1.0  0.8639509260277533  0.5735967467239085  0.04030120396955472  1.0000
  C   C24       1.0  0.8767509890000107  0.5087619708121296  0.9275093099396452  1.0000
  C   C25       1.0  0.9020871168281765  0.3780927256444693  0.9359830897380546  1.0000
  C   C26       1.0  0.9146082174232958  0.3133863467565885  0.059513608379092586  1.0000
  S   S1        1.0  0.8317345942085481  0.7406350079520465  0.027962354533648925  1.0000
  C   C27       1.0  0.732914204407069  0.6999567816230514  0.0329237483856506  1.0000
  H   H14       1.0  0.9116072036283857  0.32883445848853055  0.504880644362099  1.0000
  H   H15       1.0  0.866686528451471  0.560664396381598  0.24892713367580566  1.0000
  H   H16       1.0  0.8666863780408154  0.5606642164900073  0.8335768228995644  1.0000
  H   H17       1.0  0.9341374579371229  0.21258730715317276  0.06695773673188476  1.0000
  H   H18       1.0  0.9116058047865591  0.32883385073292626  0.6118650793628624  1.0000
  H   H19       1.0  0.7195924177029219  0.6428324409895247  0.9494727960954079  1.0000
  H   H20       1.0  0.7195927394657974  0.6428337378071101  0.12570748341010263  1.0000
  H   H21       1.0  0.69814393474559  0.791214552105663  0.02649717318199163  1.0000
  Zn  Zn1       1.0  0.8197680116027806  0.38199406995982255  0.5559437863731225  1.0000
  Zn  Zn2       1.0  0.9843990812706377  0.37419109752537794  0.5535250141546122  1.0000
  C   C28       1.0  0.9020854517862528  0.37292077020189063  0.7918548855442569  1.0000
  C   C29       1.0  0.902083438853371  0.38326595017274556  0.3176140159968095  1.0000
  C   C30       1.0  0.9020832838521387  0.6152094835812616  0.5495611739412327  1.0000
  C   C31       1.0  0.9020855506103547  0.14097567965038627  0.5599077976418976  1.0000
  O   O1        1.0  0.9645588210940046  0.38203527811078186  0.3650667211195615  1.0000
  O   O2        1.0  0.9645612421198646  0.3682281873241662  0.7425660145462436  1.0000
  O   O3        1.0  0.9645586492706747  0.5638794274551986  0.546912140532706  1.0000
  O   O4        1.0  0.9645613577657687  0.18638404992963942  0.56072049861455  1.0000
  O   O5        1.0  0.839605678927145  0.5698011202197457  0.5487483027317639  1.0000
  O   O6        1.0  0.839608271772961  0.37415143989588584  0.7444021075218172  1.0000
  O   O7        1.0  0.8396058507971577  0.3879584854386091  0.36690125318687694  1.0000
  O   O8        1.0  0.8396083874658434  0.19230724797176157  0.562555128018994  1.0000
