data_image0
_chemical_formula_structural       NC9NC5H8C6OCH8C6NCH9Zn2C4O8
_chemical_formula_sum              "N3 C32 H25 O9 Zn2"
_cell_length_a       17.807436237873137
_cell_length_b       9.273888216677433
_cell_length_c       9.273390368590327
_cell_angle_alpha    86.36751786552817
_cell_angle_beta     89.39974432744097
_cell_angle_gamma    87.81887448081709

_space_group_name_H-M_alt    "P 1"
_space_group_IT_number       1

loop_
  _space_group_symop_operation_xyz
  'x, y, z'

loop_
  _atom_site_type_symbol
  _atom_site_label
  _atom_site_symmetry_multiplicity
  _atom_site_fract_x
  _atom_site_fract_y
  _atom_site_fract_z
  _atom_site_occupancy
  N   N1        1.0  0.6996024758353773  0.524390754840089  0.40414174923649027  1.0000
  C   C1        1.0  0.6392202568755292  0.48517486182118597  0.3917670092907084  1.0000
  C   C2        1.0  0.5641114130146984  0.4363946093846218  0.37637417664942174  1.0000
  C   C3        1.0  0.5464493347890894  0.3558342939770558  0.25955281012445863  1.0000
  C   C4        1.0  0.4735231743364199  0.30834761041865466  0.24451521558934086  1.0000
  C   C5        1.0  0.4172125631046913  0.3410015302812053  0.3462614709630758  1.0000
  C   C6        1.0  0.3397101761134208  0.29066402382336953  0.3303719490393824  1.0000
  C   C7        1.0  0.2770567753698995  0.3817780268601161  0.3594851529198797  1.0000
  C   C8        1.0  0.2039894828090428  0.3340659864088844  0.34446193564097616  1.0000
  C   C9        1.0  0.1402703634145355  0.42817361619763505  0.3739897117738573  1.0000
  N   N2        1.0  0.0890532136319473  0.5038296526985513  0.3977292142766924  1.0000
  C   C10       1.0  0.1929935427902567  0.19495310078846417  0.30029635494282547  1.0000
  C   C11       1.0  0.254789655152553  0.1038236128078609  0.27117378469893905  1.0000
  C   C12       1.0  0.3277398297363535  0.15109504063294743  0.28597064667899086  1.0000
  C   C13       1.0  0.4355631516105457  0.4221135330359782  0.46332811425505227  1.0000
  C   C14       1.0  0.5085433089632876  0.469386906420763  0.47819220297122866  1.0000
  H   H1        1.0  0.5889853616251557  0.3300138459029298  0.17987292658284382  1.0000
  H   H2        1.0  0.46093396459403224  0.24774384624139567  0.15227248545513783  1.0000
  H   H3        1.0  0.2849858444262887  0.4903746282828063  0.39192164465930857  1.0000
  H   H4        1.0  0.1367270878348049  0.15702368553582113  0.28840236928363905  1.0000
  H   H5        1.0  0.2461576801367418  0.9961237549975099  0.237408272679404  1.0000
  H   H6        1.0  0.3747640094099851  0.07784617711146247  0.26456852005896425  1.0000
  H   H7        1.0  0.3937469256999119  0.447350514698559  0.5444425575205356  1.0000
  H   H8        1.0  0.5216539652376109  0.531334114156951  0.5692837313685846  1.0000
  C   C15       1.0  0.8965380986170768  0.0905157692029388  0.39942652858323857  1.0000
  C   C16       1.0  0.8790077654252794  0.173336260042104  0.27097598398222655  1.0000
  C   C17       1.0  0.8550836747521274  0.10856696780077191  0.14828540802579293  1.0000
  C   C18       1.0  0.8485510059761697  0.9579861370141904  0.15358479811525427  1.0000
  C   C19       1.0  0.8668680885761753  0.8738995489781881  0.2792498933036873  1.0000
  C   C20       1.0  0.892124807220783  0.9376933266622324  0.4024567938406094  1.0000
  O   O1        1.0  0.8380082085118566  0.1975755665705614  0.02406482661887943  1.0000
  C   C21       1.0  0.812945922005413  0.1465648570847886  0.8918363759988783  1.0000
  H   H9        1.0  0.9026096409733776  0.17064827612199163  0.7540190455001761  1.0000
  H   H10       1.0  0.8821821848059983  0.28999884542790166  0.266651524664564  1.0000
  H   H11       1.0  0.8300156277334068  0.9045373576186848  0.06067224340895638  1.0000
  H   H12       1.0  0.8629632498333781  0.7576321874437595  0.27883424942961854  1.0000
  H   H13       1.0  0.8993631022242993  0.6409081330026694  0.6402379954006405  1.0000
  H   H14       1.0  0.7590184289771212  0.09146443176173302  0.9093355147386748  1.0000
  H   H15       1.0  0.8560948303244258  0.07121932245960538  0.8479072355267503  1.0000
  H   H16       1.0  0.8038175577594519  0.23988556047911636  0.8123000237728362  1.0000
  C   C22       1.0  0.8943897246141382  0.50960449167809  0.9776792237359735  1.0000
  C   C23       1.0  0.9634241075123345  0.5030944971728177  0.05013502297020578  1.0000
  C   C24       1.0  0.031184781566056197  0.5100573408444264  0.973641333488318  1.0000
  C   C25       1.0  0.03163207118554845  0.5238299932427402  0.82205415752667  1.0000
  C   C26       1.0  0.9630684002016008  0.5278831508312121  0.7487725131757026  1.0000
  C   C27       1.0  0.8942732155709252  0.5186046305984113  0.8242040842219072  1.0000
  N   N3        1.0  0.10065420884448861  0.5323866530531598  0.7401720126871068  1.0000
  C   C28       1.0  0.17484971659478887  0.5286394624163793  0.805939143165828  1.0000
  H   H17       1.0  0.7761390804784436  0.44657666820611164  0.26522436820304973  1.0000
  H   H18       1.0  0.9650206174112482  0.496049225414007  0.16713254932691823  1.0000
  H   H19       1.0  0.08296810107303076  0.505996476315516  0.03390506951644423  1.0000
  H   H20       1.0  0.9635907462868204  0.5349613396283648  0.6316610935945879  1.0000
  H   H21       1.0  0.7197273509432068  0.4157854423823628  0.7311957410677072  1.0000
  H   H22       1.0  0.09816614123612322  0.5420752888057001  0.6273705210262404  1.0000
  H   H23       1.0  0.1792447287943908  0.6209150447246368  0.8756583546796923  1.0000
  H   H24       1.0  0.18455330203847775  0.4250450203406646  0.8709733387408658  1.0000
  H   H25       1.0  0.2188318904406883  0.5372193294003007  0.7203624612186519  1.0000
  Zn  Zn1       1.0  0.8119895638748469  0.5184535045669723  0.40229955225389524  1.0000
  Zn  Zn2       1.0  0.9766661670176079  0.5097552706710389  0.3995832186430457  1.0000
  C   C29       1.0  0.8943234820841567  0.5111569673832648  0.6641722397840857  1.0000
  C   C30       1.0  0.8943340375708752  0.517053534422957  0.13771064942937827  1.0000
  C   C31       1.0  0.892955949290851  0.77749787364107  0.3961404026776061  1.0000
  C   C32       1.0  0.8957015231891678  0.25071089888997866  0.4057425581083074  1.0000
  O   O2        1.0  0.9568092939467526  0.5162462737278009  0.19038780083862172  1.0000
  O   O3        1.0  0.95683396286237  0.505361377205553  0.6094330352103612  1.0000
  O   O4        1.0  0.9557288201828246  0.7204350877815426  0.3929954496383674  1.0000
  O   O5        1.0  0.9579143803944501  0.30117257528977404  0.4068252793031133  1.0000
  O   O6        1.0  0.8307412943019552  0.7270362029180069  0.39505749251320355  1.0000
  O   O7        1.0  0.8318464279604634  0.5119642245869602  0.6114950074321235  1.0000
  O   O8        1.0  0.8318217595952268  0.5228490524157021  0.19244803995861548  1.0000
  O   O9        1.0  0.8329268460787222  0.30777534480948243  0.40888562644998516  1.0000
