data_image0
_chemical_formula_structural       NC8NC6H8C6OCH8C7H8Zn2C4O8
_chemical_formula_sum              "N2 C32 H24 O9 Zn2"
_cell_length_a       17.457602349358154
_cell_length_b       9.273888216677433
_cell_length_c       9.274345330872308
_cell_angle_alpha    85.31914840457938
_cell_angle_beta     92.44621323531219
_cell_angle_gamma    91.10627454168798

_space_group_name_H-M_alt    "P 1"
_space_group_IT_number       1

loop_
  _space_group_symop_operation_xyz
  'x, y, z'

loop_
  _atom_site_type_symbol
  _atom_site_label
  _atom_site_symmetry_multiplicity
  _atom_site_fract_x
  _atom_site_fract_y
  _atom_site_fract_z
  _atom_site_occupancy
  N   N1        1.0  0.7200104624239296  0.624699353053402  0.47914245610892703  1.0000
  C   C1        1.0  0.659252151722988  0.5738124077829772  0.46719661896047926  1.0000
  C   C2        1.0  0.5836661533905112  0.5105153079432541  0.4523466161386793  1.0000
  C   C3        1.0  0.524562568738818  0.5544441183016651  0.5356793992637372  1.0000
  C   C4        1.0  0.450399348913603  0.49349304870298694  0.5215190158595953  1.0000
  C   C5        1.0  0.38767168088274634  0.5398733225009222  0.6097711658937859  1.0000
  C   C6        1.0  0.3132667957250667  0.5608604742527634  0.5478892400476925  1.0000
  C   C7        1.0  0.2541638107601593  0.6045841759909725  0.631341326080739  1.0000
  C   C8        1.0  0.1783271600334045  0.626263174904961  0.5670004294484727  1.0000
  N   N2        1.0  0.1173674464364303  0.6436860069015673  0.5152704950084828  1.0000
  C   C9        1.0  0.268969819413576  0.6275861924618469  0.7772410268968186  1.0000
  C   C10       1.0  0.3425859529664328  0.6070274576844845  0.8395548086386306  1.0000
  C   C11       1.0  0.4016742062992851  0.5634996351293602  0.7566117745983767  1.0000
  C   C12       1.0  0.4366388211716126  0.38787369000723904  0.4224318559244571  1.0000
  C   C13       1.0  0.4957272371082687  0.3442507419890948  0.3395443398431728  1.0000
  C   C14       1.0  0.5691025498569859  0.40532175952905813  0.3543159989234892  1.0000
  H   H1        1.0  0.5361615267009026  0.6373329814441875  0.6099461606168215  1.0000
  H   H2        1.0  0.3014697919238497  0.5451322233121783  0.4345074845245447  1.0000
  H   H3        1.0  0.22366113522147413  0.661354755996356  0.8427008267592127  1.0000
  H   H4        1.0  0.3538617069590439  0.6244880516249403  0.9525271451020101  1.0000
  H   H5        1.0  0.4580409481644605  0.5464558907605295  0.8077779938074803  1.0000
  H   H6        1.0  0.3804704609916607  0.3376416236092392  0.4104478711566193  1.0000
  H   H7        1.0  0.4846408765722874  0.26261166083454746  0.26395018306100115  1.0000
  H   H8        1.0  0.614414124058499  0.3705833269753247  0.2894210626175311  1.0000
  C   C15       1.0  0.9209498487180527  0.21084985877954177  0.49593761120986946  1.0000
  C   C16       1.0  0.9035678608963228  0.2942682541213546  0.36545693997618445  1.0000
  C   C17       1.0  0.8796401681584552  0.22934314410626278  0.24004289600786644  1.0000
  C   C18       1.0  0.8729545447989286  0.07800303500174666  0.24463335677219655  1.0000
  C   C19       1.0  0.8911501128062159  0.99344964815866  0.3724120348694091  1.0000
  C   C20       1.0  0.9164353790202946  0.057524625613177616  0.49848845105961814  1.0000
  O   O1        1.0  0.8627056848429033  0.31891756391282433  0.11384566754515801  1.0000
  C   C21       1.0  0.8376541198533699  0.26781198517079274  0.9787608660000071  1.0000
  H   H9        1.0  0.9257554354956582  0.28504705435251343  0.8515108672221585  1.0000
  H   H10       1.0  0.90682345702949  0.41133210905157713  0.3614754045949913  1.0000
  H   H11       1.0  0.8544079826418545  0.02439395031641456  0.1496126921337151  1.0000
  H   H12       1.0  0.8871678815800867  0.8767946260170006  0.37156942755527256  1.0000
  H   H13       1.0  0.9228888410907631  0.7570799786458888  0.7372732826626351  1.0000
  H   H14       1.0  0.7825667825870615  0.20692852490465952  0.9903842616254734  1.0000
  H   H15       1.0  0.8818482688015561  0.19764644066893067  0.939506281230547  1.0000
  H   H16       1.0  0.8286525469069983  0.36167769496162894  0.8981560653045633  1.0000
  C   C22       1.0  0.9204098449240583  0.637511566301147  0.07357804201651952  1.0000
  C   C23       1.0  0.87421550173063  0.7368750205965384  0.13499274698781072  1.0000
  C   C24       1.0  0.8234990534298043  0.8244259621283105  0.048662554238071865  1.0000
  C   C25       1.0  0.8171974830524272  0.8135169732802594  0.8991083096061185  1.0000
  C   C26       1.0  0.864559085796972  0.7182636580315016  0.8358096236414698  1.0000
  C   C27       1.0  0.9169753764065179  0.6308629325272832  0.9208479798143667  1.0000
  C   C28       1.0  0.7638254670252316  0.9100257179443054  0.80607325259037  1.0000
  H   H17       1.0  0.010106346439609837  0.3277139079361966  0.20897152456568935  1.0000
  H   H18       1.0  0.8761265327780977  0.74470429850482  0.2510105493302288  1.0000
  H   H19       1.0  0.7884791422174298  0.8997807484199727  0.09891006669211655  1.0000
  H   H20       1.0  0.8616739208757175  0.7148381078950095  0.7191437478998464  1.0000
  H   H21       1.0  0.9801401162635126  0.4254097404992059  0.6619666002594586  1.0000
  H   H22       1.0  0.794603661018408  0.01161515086393683  0.7700977047511914  1.0000
  H   H23       1.0  0.713353033013815  0.9369870819818504  0.8671618891960944  1.0000
  H   H24       1.0  0.74256910761983  0.8557211256517925  0.7093526627364608  1.0000
  Zn  Zn1       1.0  0.8346790915084443  0.6301745598431843  0.489576545582596  1.0000
  Zn  Zn2       1.0  0.002698818248580981  0.638198887695739  0.5048481808260372  1.0000
  C   C29       1.0  0.9176534938927314  0.6263764737098212  0.7606783910839281  1.0000
  C   C30       1.0  0.9197262403618285  0.6419988793118188  0.2337466491638307  1.0000
  C   C31       1.0  0.9173080797623004  0.8975299961067469  0.49225720492291014  1.0000
  C   C32       1.0  0.9200716060822615  0.37084362154148853  0.5021679018076508  1.0000
  O   O2        1.0  0.9832594606161889  0.6465437638301659  0.2932961839185724  1.0000
  O   O3        1.0  0.9816433660044535  0.6279207840678349  0.7127192555624604  1.0000
  O   O4        1.0  0.9813635740948067  0.8468806297860292  0.495967175001764  1.0000
  O   O5        1.0  0.9835391955755544  0.4275839265353265  0.5100481511327277  1.0000
  O   O6        1.0  0.8538386568446068  0.8407895182669167  0.48437657005686297  1.0000
  O   O7        1.0  0.8541184398273867  0.6218314051854463  0.701128578915714  1.0000
  O   O8        1.0  0.8557345417886316  0.6404543483237553  0.2817037726786591  1.0000
  O   O9        1.0  0.856014276361414  0.4214944998688803  0.4984558480203125  1.0000
