data_image0
_chemical_formula_structural       NC8NC6H8C9H8C9H8Zn2C4O8
_chemical_formula_sum              "N2 C36 H24 Zn2 O8"
_cell_length_a       17.457602349358154
_cell_length_b       9.275152443626249
_cell_length_c       9.275155815604963
_cell_angle_alpha    85.85171904572836
_cell_angle_beta     93.22066324705655
_cell_angle_gamma    92.27213218982278

_space_group_name_H-M_alt    "P 1"
_space_group_IT_number       1

loop_
  _space_group_symop_operation_xyz
  'x, y, z'

loop_
  _atom_site_type_symbol
  _atom_site_label
  _atom_site_symmetry_multiplicity
  _atom_site_fract_x
  _atom_site_fract_y
  _atom_site_fract_z
  _atom_site_occupancy
  N   N1        1.0  0.7258972553327003  0.6008199777845857  0.47051582956001425  1.0000
  C   C1        1.0  0.6645075282197923  0.5496903090468306  0.458883401544397  1.0000
  C   C2        1.0  0.5881361941932132  0.48609144319462927  0.444423234492322  1.0000
  C   C3        1.0  0.5301255667114592  0.5314439009697454  0.5274324986241479  1.0000
  C   C4        1.0  0.4552071633035343  0.470204564801584  0.5136474012165202  1.0000
  C   C5        1.0  0.3936354632790918  0.518092405032732  0.6015577830808361  1.0000
  C   C6        1.0  0.3189897192617037  0.53806883102023  0.5395950577943203  1.0000
  C   C7        1.0  0.26097840284698115  0.5832179860793887  0.6227247666238309  1.0000
  C   C8        1.0  0.1848898093641401  0.6038459733767929  0.5583007109044342  1.0000
  N   N2        1.0  0.12372745947709342  0.6204237883303738  0.506503958870586  1.0000
  C   C9        1.0  0.2771240097094714  0.6086658174289248  0.7683808895734516  1.0000
  C   C10       1.0  0.350988803668727  0.5891253601768935  0.8307725918724063  1.0000
  C   C11       1.0  0.4089912934126934  0.5441807180836116  0.7481503927476516  1.0000
  C   C12       1.0  0.4395786618071248  0.362846147874178  0.4152646309394996  1.0000
  C   C13       1.0  0.497580717924836  0.3178072209801537  0.3326984791779468  1.0000
  C   C14       1.0  0.5717170777829438  0.37917677274690686  0.3470936905528996  1.0000
  H   H1        1.0  0.5431642604650225  0.6156394338176956  0.6011489986125502  1.0000
  H   H2        1.0  0.306174545146588  0.5204417461204871  0.42638973353560283  1.0000
  H   H3        1.0  0.232666005387751  0.6435520484345543  0.8335909806242316  1.0000
  H   H4        1.0  0.3632981000614848  0.6084794819251176  0.9435584196345885  1.0000
  H   H5        1.0  0.4655604780485876  0.5279729463628839  0.7993815682102323  1.0000
  H   H6        1.0  0.3827855713871232  0.3123712912558094  0.40359016113089763  1.0000
  H   H7        1.0  0.4850579682658124  0.2348404825385053  0.25764806205901314  1.0000
  H   H8        1.0  0.6161718842885905  0.3433292242290431  0.28245386155186636  1.0000
  C   C15       1.0  0.9225564637852913  0.18689108831206114  0.4897772042696009  1.0000
  C   C16       1.0  0.8944516958035824  0.2671906733268732  0.36479561217552003  1.0000
  C   C17       1.0  0.8734748166943931  0.1996410013300811  0.23816644885421479  1.0000
  C   C18       1.0  0.8802716070675958  0.05059295766810301  0.23401927777819043  1.0000
  C   C19       1.0  0.9068717685663514  0.9685221684046762  0.35782999170768015  1.0000
  C   C20       1.0  0.9270755754408069  0.03434204748360825  0.4872557122361454  1.0000
  C   C21       1.0  0.8590386410110197  0.9812842856280919  0.10293113315225955  1.0000
  C   C22       1.0  0.8412609601250607  0.9232210495895856  0.9931655098473247  1.0000
  C   C23       1.0  0.8196912502706123  0.8527595994645115  0.8599842117898855  1.0000
  H   H9        1.0  0.0338303830017308  0.276505615803492  0.787672758942477  1.0000
  H   H10       1.0  0.8904064467390411  0.38350491670257947  0.36397633357701453  1.0000
  H   H11       1.0  0.8526361953193112  0.2640497045533525  0.14294027640901974  1.0000
  H   H12       1.0  0.9100902691067099  0.8523360962946809  0.3541006538541498  1.0000
  H   H13       1.0  0.999542514144971  0.7443097258858916  0.6906769298324034  1.0000
  H   H14       1.0  0.8337700009679485  0.7368475289499268  0.8747219405561459  1.0000
  H   H15       1.0  0.7571451736181268  0.862090106453173  0.8345959566582937  1.0000
  H   H16       1.0  0.8517951863987268  0.9058863623539863  0.7695999037977255  1.0000
  C   C24       1.0  0.9233900595641674  0.606899956413276  0.06516885919059501  1.0000
  C   C25       1.0  0.863712604198818  0.6742500353807426  0.12734213473483114  1.0000
  C   C26       1.0  0.8092280140324966  0.7514433059857015  0.040852362860349434  1.0000
  C   C27       1.0  0.8134114828839306  0.7629094177345497  0.890610062054114  1.0000
  C   C28       1.0  0.8715400323856098  0.6947079521786879  0.8265909867648511  1.0000
  C   C29       1.0  0.9262419576562778  0.6143330999588239  0.9118640478057749  1.0000
  C   C30       1.0  0.7573931568175063  0.8433973421497816  0.8016572720170858  1.0000
  C   C31       1.0  0.7104879196625319  0.9107951084193919  0.7271450309774168  1.0000
  C   C32       1.0  0.6535768527825516  0.9925709271402048  0.636725594406006  1.0000
  H   H17       1.0  0.1009475776378097  0.49926128556146243  0.19459128913859636  1.0000
  H   H18       1.0  0.8602424736856704  0.6700802309552067  0.2438335917173151  1.0000
  H   H19       1.0  0.7642170380378205  0.8034454790674421  0.09140612522492697  1.0000
  H   H20       1.0  0.8729945656856812  0.7015630034248115  0.7095528081527389  1.0000
  H   H21       1.0  0.04468390616336948  0.5366296905807753  0.6492849763147319  1.0000
  H   H22       1.0  0.6691981640014397  0.9974854425096977  0.5221253912250732  1.0000
  H   H23       1.0  0.5961299643553611  0.9383706898809259  0.6467328392799696  1.0000
  H   H24       1.0  0.6522282504573161  0.10389368247909747  0.6727230694950586  1.0000
  Zn  Zn1       1.0  0.8407024660780413  0.6064734175603523  0.48090956165890875  1.0000
  Zn  Zn2       1.0  0.00892221114982994  0.6147586216033603  0.49612206486118726  1.0000
  C   C33       1.0  0.9256705334787887  0.6071796626174875  0.7518375118727032  1.0000
  C   C34       1.0  0.9239559908887706  0.614054288898483  0.2251944168476001  1.0000
  C   C35       1.0  0.9261980607871078  0.8741051200323533  0.4819871771781963  1.0000
  C   C36       1.0  0.9234283971930204  0.34712709571172073  0.4950448283692386  1.0000
  O   O1        1.0  0.9879844056122324  0.6195932449052304  0.2846735402634868  1.0000
  O   O2        1.0  0.9893170057222574  0.6079278925803924  0.7039039146361226  1.0000
  O   O3        1.0  0.9897421351706197  0.8234735459508382  0.485997777845546  1.0000
  O   O4        1.0  0.9875592184528217  0.40404759808082136  0.5025795637392931  1.0000
  O   O5        1.0  0.8620654013698897  0.8171844382570621  0.47445205758193465  1.0000
  O   O6        1.0  0.8616402809037985  0.6016405178326834  0.6923581123465112  1.0000
  O   O7        1.0  0.8603076747385365  0.6133058046606008  0.2731260048582047  1.0000
  O   O8        1.0  0.8598824878850144  0.3977601484643254  0.4910321364499135  1.0000
