data_image0
_chemical_formula_structural       NC9NC5H8C6OCH8C6NH7Zn2C4O8
_chemical_formula_sum              "N3 C31 H23 O9 Zn2"
_cell_length_a       17.807436237873137
_cell_length_b       9.273888216677433
_cell_length_c       9.274774538082514
_cell_angle_alpha    85.2669921481321
_cell_angle_beta     89.72824813723155
_cell_angle_gamma    87.81887448081709

_space_group_name_H-M_alt    "P 1"
_space_group_IT_number       1

loop_
  _space_group_symop_operation_xyz
  'x, y, z'

loop_
  _atom_site_type_symbol
  _atom_site_label
  _atom_site_symmetry_multiplicity
  _atom_site_fract_x
  _atom_site_fract_y
  _atom_site_fract_z
  _atom_site_occupancy
  N   N1        1.0  0.6942259182307298  0.5555337902757966  0.4021870594719612  1.0000
  C   C1        1.0  0.6338020079100548  0.5165593892343008  0.3897971623043528  1.0000
  C   C2        1.0  0.558641304523884  0.4680795265924911  0.37438547572513214  1.0000
  C   C3        1.0  0.5405856469773833  0.3897989700266604  0.2574210203454319  1.0000
  C   C4        1.0  0.46760882382129704  0.342605743822163  0.2423650069863954  1.0000
  C   C5        1.0  0.4116410028109509  0.37327409433039405  0.344235886438655  1.0000
  C   C6        1.0  0.3340850829135515  0.3232466705156056  0.32832690220629357  1.0000
  C   C7        1.0  0.2715297665817533  0.4137925319021376  0.35747576544539017  1.0000
  C   C8        1.0  0.1984118597554575  0.36637366823390116  0.34243414695257424  1.0000
  C   C9        1.0  0.1347922214954681  0.4599050660308668  0.3719980902336022  1.0000
  N   N2        1.0  0.083655051750362  0.5350978281981651  0.3957666701075233  1.0000
  C   C10       1.0  0.1872671228189924  0.2281226700925616  0.29821446996580026  1.0000
  C   C11       1.0  0.2489651192136351  0.137561506545943  0.2690562288909082  1.0000
  C   C12       1.0  0.3219651454561062  0.1845441748920711  0.2838712148331888  1.0000
  C   C13       1.0  0.4303859969922096  0.45210155168858357  0.4614459190130451  1.0000
  C   C14       1.0  0.5034162324951786  0.4990848536704815  0.4763282140342351  1.0000
  H   H1        1.0  0.5828532267357794  0.3655334679732496  0.17764354075935418  1.0000
  H   H2        1.0  0.45470884189601724  0.2838020885279344  0.15000929318314782  1.0000
  H   H3        1.0  0.2795681164381422  0.5217561380001068  0.3899519870783541  1.0000
  H   H4        1.0  0.1309605961973918  0.19042536493909545  0.286305915937515  1.0000
  H   H5        1.0  0.2402193858359289  0.030520579775880963  0.23524935912502798  1.0000
  H   H6        1.0  0.3689172198744123  0.1117129720164538  0.2624428737810074  1.0000
  H   H7        1.0  0.3888430512908784  0.47575559202178486  0.5426597154459734  1.0000
  H   H8        1.0  0.5168337824735573  0.5592544181257484  0.5675313160491784  1.0000
  C   C15       1.0  0.8911456551056145  0.12175082176098173  0.3974660633724605  1.0000
  C   C16       1.0  0.8731825630819692  0.20707801384402735  0.2688581858976429  1.0000
  C   C17       1.0  0.8488451193125373  0.14470301755774684  0.14601733217505286  1.0000
  C   C18       1.0  0.8423303045509144  0.994018769632917  0.1513232132317175  1.0000
  C   C19       1.0  0.8610707616096794  0.9074798381568803  0.277142229531381  1.0000
  C   C20       1.0  0.886742572884043  0.9688692438564396  0.4005000402555221  1.0000
  O   O1        1.0  0.8313511452810527  0.23613577020633447  0.021644598972136553  1.0000
  C   C21       1.0  0.805843371914237  0.1877054874729358  0.8892541881035463  1.0000
  H   H9        1.0  0.8984118443501768  0.19496348644824701  0.7524929035527985  1.0000
  H   H10       1.0  0.8763424130580312  0.3238249906785684  0.2645284297584354  1.0000
  H   H11       1.0  0.8234818974396197  0.9423831706889058  0.05829685442057908  1.0000
  H   H12       1.0  0.8571645225337193  0.7912205878766262  0.2767260765551871  1.0000
  H   H13       1.0  0.8947819693180139  0.6674437706591507  0.6385724885354069  1.0000
  H   H14       1.0  0.7519748347032437  0.1322635679741866  0.9067747606939793  1.0000
  H   H15       1.0  0.8488442798991611  0.11321722621631691  0.8452712409470187  1.0000
  H   H16       1.0  0.7964470441576054  0.28257833588679593  0.8096204156376237  1.0000
  C   C22       1.0  0.8875763850562816  0.5490699063334488  0.9752021806025586  1.0000
  C   C23       1.0  0.9403792836667023  0.6313934473867815  0.04136570691926056  1.0000
  C   C24       1.0  0.99661510810942  0.7016585861371314  0.959929674130088  1.0000
  C   C25       1.0  0.0005048505469971154  0.6899082735491511  0.8108477559062188  1.0000
  C   C26       1.0  0.9479265199143984  0.610749503416768  0.742989072384248  1.0000
  C   C27       1.0  0.8903118529716073  0.541550121601166  0.8227639154011421  1.0000
  N   N3        1.0  0.0502817036324128  0.7837361913014311  0.029083504688388828  1.0000
  H   H17       1.0  0.7767206155296075  0.2730038733982989  0.10196444376877989  1.0000
  H   H18       1.0  0.9389911055531747  0.63830525053023  0.15743263689921627  1.0000
  H   H19       1.0  0.043927372903072914  0.7433422548091397  0.7467959109358295  1.0000
  H   H20       1.0  0.9512981737813005  0.606561510704382  0.6267464100126325  1.0000
  H   H21       1.0  0.8133159705562352  0.3601220734555617  0.5573029904386333  1.0000
  H   H22       1.0  0.04805260064571404  0.7928958241037183  0.14052179803179632  1.0000
  H   H23       1.0  0.09262552636944577  0.8360928258493256  0.9693341632479022  1.0000
  Zn  Zn1       1.0  0.8066067997802487  0.5496324903171144  0.40034260607117633  1.0000
  Zn  Zn2       1.0  0.9712742514058715  0.5409872654361474  0.39762294535436116  1.0000
  C   C28       1.0  0.8898229853143138  0.5372255303352076  0.6625360488198706  1.0000
  C   C29       1.0  0.8880598550329997  0.553395949677328  0.1354296210671102  1.0000
  C   C30       1.0  0.8875524345923212  0.808797054661323  0.3941759124497761  1.0000
  C   C31       1.0  0.8903303588211119  0.2818226946793094  0.4037898290973201  1.0000
  O   O2        1.0  0.9507125844011465  0.551560698938441  0.18817129417722178  1.0000
  O   O3        1.0  0.9521490458995168  0.5324981709899941  0.607729796835859  1.0000
  O   O4        1.0  0.9503147099184474  0.7517956422877532  0.39102710730931634  1.0000
  O   O5        1.0  0.9525468637895154  0.33226324186883827  0.40487387646507145  1.0000
  O   O6        1.0  0.8253341312036525  0.7583565168362518  0.3930916758809675  1.0000
  O   O7        1.0  0.8271684579256499  0.5390607791622242  0.6097942946678967  1.0000
  O   O8        1.0  0.8257319911387196  0.5581232722384959  0.1902340567846985  1.0000
  O   O9        1.0  0.8275662709268367  0.3388258038925649  0.4069367472317431  1.0000
