data_image0
_chemical_formula_structural       NC8NC6H8C7OH6C6ClH5Zn2C4O8
_chemical_formula_sum              "N2 C31 H19 O9 Cl1 Zn2"
_cell_length_a       17.457602349358154
_cell_length_b       9.274078303013075
_cell_length_c       10.302974078461048
_cell_angle_alpha    85.73623370139752
_cell_angle_beta     92.87591007631781
_cell_angle_gamma    91.09880916489897

_space_group_name_H-M_alt    "P 1"
_space_group_IT_number       1

loop_
  _space_group_symop_operation_xyz
  'x, y, z'

loop_
  _atom_site_type_symbol
  _atom_site_label
  _atom_site_symmetry_multiplicity
  _atom_site_fract_x
  _atom_site_fract_y
  _atom_site_fract_z
  _atom_site_occupancy
  N   N1        1.0  0.7137158876824616  0.6127790479639641  0.6307038691542737  1.0000
  C   C1        1.0  0.6529132553052299  0.5617979199401599  0.6199732987694948  1.0000
  C   C2        1.0  0.5772721633399042  0.4983837401353719  0.6066340227440048  1.0000
  C   C3        1.0  0.5185027839606164  0.5429668576188504  0.6816104513942469  1.0000
  C   C4        1.0  0.4442870767337946  0.48190413997990733  0.6688908693676603  1.0000
  C   C5        1.0  0.3819133544510236  0.5289773452487034  0.7482934212313497  1.0000
  C   C6        1.0  0.3072559800012143  0.5494790818586579  0.6925959348158022  1.0000
  C   C7        1.0  0.24848770033075854  0.5938580251299639  0.7676798074762876  1.0000
  C   C8        1.0  0.1723885387043986  0.6150323189721589  0.7097691535908077  1.0000
  N   N2        1.0  0.1112177675074944  0.632049369178775  0.6632091224235763  1.0000
  C   C9        1.0  0.2638831748938573  0.618005139632521  0.8989701427034513  1.0000
  C   C10       1.0  0.3377535135421579  0.59793521255937  0.9550561016064978  1.0000
  C   C11       1.0  0.3965091089579169  0.5537561447844486  0.8804302630129337  1.0000
  C   C12       1.0  0.4301334555153214  0.3755063113764827  0.57976066675164  1.0000
  C   C13       1.0  0.4888894461956753  0.3312325529708644  0.505184827418474  1.0000
  C   C14       1.0  0.562319714133521  0.3924200163706757  0.5184544671053821  1.0000
  H   H1        1.0  0.5303960694449832  0.6264392236574505  0.7484129273294067  1.0000
  H   H2        1.0  0.2950007170029275  0.5328609695663251  0.5905665908535915  1.0000
  H   H3        1.0  0.2188370759674645  0.6522876699093632  0.9578661235030737  1.0000
  H   H4        1.0  0.3494857280421804  0.6162824701168286  0.056716322656220064  1.0000
  H   H5        1.0  0.4530845932485375  0.5371137619336366  0.9264828430630316  1.0000
  H   H6        1.0  0.3739205663695769  0.3251797685610205  0.5689955110535969  1.0000
  H   H7        1.0  0.477503277804376  0.24899956348787478  0.43718730351472335  1.0000
  H   H8        1.0  0.6073710704227617  0.3571720412278492  0.46006720104074184  1.0000
  C   C15       1.0  0.91475663476192  0.19905775445542195  0.6459795705792126  1.0000
  C   C16       1.0  0.8999261537540965  0.28180309626669  0.5275715905023199  1.0000
  C   C17       1.0  0.8784686246284408  0.215660656049516  0.41305621633532885  1.0000
  C   C18       1.0  0.8716377649195389  0.06468585893014778  0.41686021750382096  1.0000
  C   C19       1.0  0.8873313698230106  0.9809237613822575  0.5329225931553829  1.0000
  C   C20       1.0  0.9101844238414801  0.045759871462781154  0.6479452581278953  1.0000
  C   C21       1.0  0.8626670256029914  0.3058123230649441  0.2909380783655904  1.0000
  O   O1        1.0  0.8429543145169653  0.24955965226372756  0.1865315594189796  1.0000
  H   H9        1.0  0.9123974341621606  0.2755711773356715  0.9654319883383071  1.0000
  H   H10       1.0  0.9033569170240514  0.3988350273418164  0.5250520136175674  1.0000
  H   H11       1.0  0.8548598208493521  0.011020939639583283  0.3297810082094017  1.0000
  H   H12       1.0  0.8833333170873112  0.864292794877208  0.5319011742295627  1.0000
  H   H13       1.0  0.9119536802958753  0.7469553000310885  0.8627963530608755  1.0000
  H   H14       1.0  0.8679619212721817  0.42238359564857864  0.2900068723498208  1.0000
  C   C22       1.0  0.9124705291968908  0.6224088435968633  0.2657199035005955  1.0000
  C   C23       1.0  0.8999371405335349  0.4720260357189858  0.27351493059201504  1.0000
  C   C24       1.0  0.8937184542931496  0.39741018436100517  0.16042582243678893  1.0000
  C   C25       1.0  0.8999371743982595  0.47202611880111744  0.03840703461512818  1.0000
  C   C26       1.0  0.9124705276422989  0.6224087690845606  0.02820492224126614  1.0000
  C   C27       1.0  0.9186761409293132  0.6968671518841285  0.1425070107045623  1.0000
  Cl  Cl1       1.0  0.8780612768438985  0.2095463316874182  0.1716672060635891  1.0000
  H   H15       1.0  0.9171920826466349  0.6790554731602045  0.5900866265915834  1.0000
  H   H16       1.0  0.894952329614685  0.41221528178698885  0.3671404254647095  1.0000
  H   H17       1.0  0.8949523833237972  0.41221526381389917  0.9519394637259619  1.0000
  H   H18       1.0  0.9283422320436844  0.8128468853418163  0.1355669240029842  1.0000
  H   H19       1.0  0.917191936764369  0.6790554533269375  0.6970589841456016  1.0000
  Zn  Zn1       1.0  0.8284263645962107  0.6183361802656173  0.6400916701031039  1.0000
  Zn  Zn2       1.0  0.9965073401727235  0.6264804167602336  0.6538319230367207  1.0000
  C   C28       1.0  0.9124998200503793  0.6166654407224172  0.8840654261529342  1.0000
  C   C29       1.0  0.9124357103347616  0.6281530642654412  0.4098584486771617  1.0000
  C   C30       1.0  0.9110447101018554  0.8857149735712952  0.6423998927153722  1.0000
  C   C31       1.0  0.9138907722823365  0.35910179654979135  0.651524042620707  1.0000
  O   O2        1.0  0.9762099130401538  0.6331652829772267  0.4634470009392979  1.0000
  O   O3        1.0  0.976295194551543  0.6178334214779375  0.8409050316926212  1.0000
  O   O4        1.0  0.9751193150018836  0.8350942801850285  0.6457583368050832  1.0000
  O   O5        1.0  0.9773857351794727  0.4159044318041156  0.658593593819772  1.0000
  O   O6        1.0  0.8475479122316651  0.8289121624440765  0.6353299946243534  1.0000
  O   O7        1.0  0.8487237824244771  0.6116530358260983  0.83047662431021  1.0000
  O   O8        1.0  0.8486385012354184  0.626984847089417  0.4530170325613381  1.0000
  O   O9        1.0  0.8498143234272814  0.4097239856046677  0.6481637227531771  1.0000
