data_image0
_chemical_formula_structural       NC8NC6H8C6H6C6NCOH7Zn2C4O8
_chemical_formula_sum              "N3 C31 H21 O9 Zn2"
_cell_length_a       17.457602349358154
_cell_length_b       10.681118228259551
_cell_length_c       10.29962270195845
_cell_angle_alpha    85.57967045949373
_cell_angle_beta     92.8939802036364
_cell_angle_gamma    91.68806569353352

_space_group_name_H-M_alt    "P 1"
_space_group_IT_number       1

loop_
  _space_group_symop_operation_xyz
  'x, y, z'

loop_
  _atom_site_type_symbol
  _atom_site_label
  _atom_site_symmetry_multiplicity
  _atom_site_fract_x
  _atom_site_fract_y
  _atom_site_fract_z
  _atom_site_occupancy
  N   N1        1.0  0.7221619570011669  0.40049458314042163  0.6265267493201268  1.0000
  C   C1        1.0  0.6610819934862706  0.35620618781306  0.6159111829435524  1.0000
  C   C2        1.0  0.5850959376672632  0.30111693742066725  0.602714960186896  1.0000
  C   C3        1.0  0.5265816469863838  0.339868780395735  0.6776115072284228  1.0000
  C   C4        1.0  0.4520337914666875  0.2868223363962601  0.6650297133575984  1.0000
  C   C5        1.0  0.3899294509504024  0.3277386529945685  0.7443479972337286  1.0000
  C   C6        1.0  0.3153721101113816  0.3455292455929635  0.6885853330395619  1.0000
  C   C7        1.0  0.25685783726393113  0.38410376745425  0.7635898321168495  1.0000
  C   C8        1.0  0.1808619169118511  0.4024778517595411  0.7056117405423861  1.0000
  N   N2        1.0  0.1197741134852669  0.41724446375293445  0.6589975059616222  1.0000
  C   C9        1.0  0.2724088399016439  0.4051223198868843  0.8948655053025663  1.0000
  C   C10       1.0  0.3461815509225036  0.3877069471670005  0.951015761768002  1.0000
  C   C11       1.0  0.4046843064770613  0.34930619799485174  0.8764689770818328  1.0000
  C   C12       1.0  0.4372885981474814  0.19437035769291344  0.5761184744071879  1.0000
  C   C13       1.0  0.49579124725374296  0.1558873717066498  0.5016219246437752  1.0000
  C   C14       1.0  0.5695544424020568  0.20904235699491136  0.5147536599926525  1.0000
  H   H1        1.0  0.5389384408782624  0.4123991732954009  0.7442412143893715  1.0000
  H   H2        1.0  0.3030075763210809  0.3310603852747036  0.5865623969332434  1.0000
  H   H3        1.0  0.22755913130275074  0.43492125476739774  0.9537004523754427  1.0000
  H   H4        1.0  0.3580323021594775  0.40367771223493865  0.052665443097485665  1.0000
  H   H5        1.0  0.4611787488546842  0.33486487503484663  0.9225747304264558  1.0000
  H   H6        1.0  0.3808019057178513  0.15065055793147875  0.5654667917259693  1.0000
  H   H7        1.0  0.48394803368323563  0.08443317368204095  0.43379391447483573  1.0000
  H   H8        1.0  0.6144042928050972  0.17840495327579609  0.4564298300799037  1.0000
  C   C15       1.0  0.9209717133224276  0.04111966151815283  0.6427680155237256  1.0000
  C   C16       1.0  0.9546720212178487  0.9680590720435055  0.748654196392855  1.0000
  C   C17       1.0  0.9546720094765965  0.8371768333540912  0.7486541360604786  1.0000
  C   C18       1.0  0.9209717004518291  0.776610064950758  0.6427680706114391  1.0000
  C   C19       1.0  0.8872992897548276  0.8496604571253199  0.5369693952691317  1.0000
  C   C20       1.0  0.8872993014563879  0.9805527157339784  0.5369694489319481  1.0000
  H   H9        1.0  0.8868913731687824  0.3461467191981902  0.5356889377639322  1.0000
  H   H10       1.0  0.9810879579460816  0.011973370672401229  0.8316527456962264  1.0000
  H   H11       1.0  0.9810878636130356  0.7834693380954296  0.8316527150529407  1.0000
  H   H12       1.0  0.8608799087525345  0.8057915530762932  0.4539600093136158  1.0000
  H   H13       1.0  0.8608798886397392  0.03421599125953323  0.4539599971114727  1.0000
  H   H14       1.0  0.8868916555742975  0.4842173800928856  0.5356886095303768  1.0000
  C   C21       1.0  0.920898695299453  0.4087396909779506  0.2614052953926962  1.0000
  C   C22       1.0  0.8405075116818275  0.41501396281116976  0.25274666041596827  1.0000
  C   C23       1.0  0.8001475712508127  0.42023143597375445  0.13143342853293394  1.0000
  C   C24       1.0  0.840677153918659  0.4152895229091196  0.01758832163809676  1.0000
  C   C25       1.0  0.9210447080216654  0.40898999980610506  0.024130745311632174  1.0000
  C   C26       1.0  0.9607199468215656  0.4062542612191611  0.14650737759624377  1.0000
  N   N3        1.0  0.7177837151465988  0.4247033077052751  0.12658987016364298  1.0000
  C   C27       1.0  0.6727737571151237  0.4911593869357518  0.02484064187851187  1.0000
  O   O1        1.0  0.7036797566449788  0.5648503466876282  0.9402546169667318  1.0000
  H   H15       1.0  0.07248208188780136  0.395561489365426  0.4850923204392854  1.0000
  H   H16       1.0  0.8088289954492011  0.41693816258476324  0.3403153155340952  1.0000
  H   H17       1.0  0.8095381814784222  0.41374136581807264  0.9241931496564084  1.0000
  H   H18       1.0  0.022693663931578678  0.4014337326798858  0.1523049013420803  1.0000
  H   H19       1.0  0.9518165766376395  0.4046694524153487  0.6993409794886549  1.0000
  H   H20       1.0  0.6886514733717667  0.38453872168905323  0.20630811544215755  1.0000
  H   H21       1.0  0.6109002763965259  0.48074240672116786  0.02268261498799906  1.0000
  Zn  Zn1       1.0  0.8369042379350098  0.40532488099561714  0.6359046066269205  1.0000
  Zn  Zn2       1.0  0.005031820337235926  0.41240390180730824  0.6496302810095804  1.0000
  C   C28       1.0  0.9210153967839176  0.40395369370391676  0.8799591984558965  1.0000
  C   C29       1.0  0.9209224974606536  0.413776746547009  0.40557596652904615  1.0000
  C   C30       1.0  0.9209667554950806  0.63758483226799  0.637592648460501  1.0000
  C   C31       1.0  0.9209710813925981  0.18014410100685763  0.6479425810782296  1.0000
  O   O2        1.0  0.9847340270009384  0.41814821650111833  0.4591697826736192  1.0000
  O   O3        1.0  0.984808812007938  0.4049540918897854  0.836782477737219  1.0000
  O   O4        1.0  0.9847686737083021  0.5936141551778005  0.641069703614052  1.0000
  O   O5        1.0  0.984774107911378  0.22948815972401948  0.6548824547400505  1.0000
  O   O6        1.0  0.8571618929871738  0.588240620664545  0.6306524282057204  1.0000
  O   O7        1.0  0.8572020312700085  0.39958206193824597  0.82636513308437  1.0000
  O   O8        1.0  0.8571272460151323  0.4127761423994649  0.4487508766494994  1.0000
  O   O9        1.0  0.8571673269410744  0.22411607669708822  0.6444636460819364  1.0000
