data_image0
_chemical_formula_structural       NC9NC5H8C6H6C9H8Zn2C4O8
_chemical_formula_sum              "N2 C33 H22 Zn2 O8"
_cell_length_a       17.807436237873137
_cell_length_b       10.681118228259551
_cell_length_c       9.275155815604963
_cell_angle_alpha    86.05281192144676
_cell_angle_beta     89.76311116066846
_cell_angle_gamma    88.3900060031841

_space_group_name_H-M_alt    "P 1"
_space_group_IT_number       1

loop_
  _space_group_symop_operation_xyz
  'x, y, z'

loop_
  _atom_site_type_symbol
  _atom_site_label
  _atom_site_symmetry_multiplicity
  _atom_site_fract_x
  _atom_site_fract_y
  _atom_site_fract_z
  _atom_site_occupancy
  N   N1        1.0  0.702204251767007  0.3264670409946686  0.39883121100557184  1.0000
  C   C1        1.0  0.6415769491296062  0.2924444066664784  0.38659782347695026  1.0000
  C   C2        1.0  0.5661632480997743  0.2501239961920796  0.371380817678465  1.0000
  C   C3        1.0  0.5476929400695746  0.1804057915932087  0.2548579292020383  1.0000
  C   C4        1.0  0.47446983017341987  0.13920774667965286  0.2399915035759057  1.0000
  C   C5        1.0  0.4186681927841316  0.16736359532722256  0.34161195423492985  1.0000
  C   C6        1.0  0.3408511987650506  0.12369216398698324  0.3259038726947301  1.0000
  C   C7        1.0  0.278768430527307  0.20273948899676908  0.3546886270333378  1.0000
  C   C8        1.0  0.2054030651841807  0.16134576813354995  0.3398373833779198  1.0000
  C   C9        1.0  0.1422715197998483  0.24299128917611057  0.3690259665202429  1.0000
  N   N2        1.0  0.0915267429834323  0.30862864841785353  0.39249278117174446  1.0000
  C   C10       1.0  0.1935368318063462  0.04065574927300353  0.29617325432032793  1.0000
  C   C11       1.0  0.2547621999501945  0.9615949984650513  0.26737918983038367  1.0000
  C   C12       1.0  0.3280074025143363  0.0026066218452223122  0.2820056741000956  1.0000
  C   C13       1.0  0.4378306962907448  0.2375602934483796  0.45837812462950245  1.0000
  C   C14       1.0  0.511106115892968  0.278573478136672  0.4730718227185935  1.0000
  H   H1        1.0  0.5898290865069059  0.15814063426059466  0.1752774546772824  1.0000
  H   H2        1.0  0.46125806716719997  0.08676855326913668  0.14797369843941222  1.0000
  H   H3        1.0  0.2873700777302992  0.2969584062446795  0.38673384817833667  1.0000
  H   H4        1.0  0.1370335825576911  0.007749085638782738  0.2844159773810726  1.0000
  H   H5        1.0  0.2454578761394402  0.8681571352020347  0.23400185899624093  1.0000
  H   H6        1.0  0.3745795139647853  0.9390546611502938  0.26086741891204945  1.0000
  H   H7        1.0  0.3964161015697629  0.25931617480933844  0.5393951184972605  1.0000
  H   H8        1.0  0.5248424693848031  0.3321812001087605  0.563933723326677  1.0000
  C   C15       1.0  0.8968691158465116  0.9497977358134924  0.39566816189135445  1.0000
  C   C16       1.0  0.930219727301188  0.8746124342240185  0.5095837806563415  1.0000
  C   C17       1.0  0.9302197156015578  0.7437301960914632  0.50958371495384  1.0000
  C   C18       1.0  0.8968691034363458  0.6852881408049118  0.39566822439643734  1.0000
  C   C19       1.0  0.8635460991964153  0.7604614850998129  0.2818467417791859  1.0000
  C   C20       1.0  0.8635461108343699  0.8913537431029106  0.2818468000843857  1.0000
  H   H9        1.0  0.8631424195743522  0.25697347469517196  0.2804692272882454  1.0000
  H   H10       1.0  0.9563615543811971  0.9168612789997583  0.5988761735330252  1.0000
  H   H11       1.0  0.9563614619363702  0.6883572544493336  0.598876149579582  1.0000
  H   H12       1.0  0.8374008635318733  0.7182582519404966  0.19254268999724578  1.0000
  H   H13       1.0  0.8374008438022688  0.9466826917907315  0.1925426785993214  1.0000
  H   H14       1.0  0.8631426948900176  0.3950441082750856  0.28046883293626146  1.0000
  C   C21       1.0  0.8954926761570703  0.314440562746118  0.9724593668611639  1.0000
  C   C22       1.0  0.8367245268080236  0.3781536518968418  0.04123101970942811  1.0000
  C   C23       1.0  0.7829881464959895  0.44995905979193074  0.9608211130182318  1.0000
  C   C24       1.0  0.7870233742329384  0.45954909787388964  0.8101736206122658  1.0000
  C   C25       1.0  0.8442797873080179  0.39523243346285564  0.7397182148106629  1.0000
  C   C26       1.0  0.8982455185331853  0.32064524548463336  0.8188769751287062  1.0000
  C   C27       1.0  0.7317684649954997  0.5343498269457587  0.7274758182333496  1.0000
  C   C28       1.0  0.6855024325534469  0.5969851121691738  0.6582010133343883  1.0000
  C   C29       1.0  0.6293669216594471  0.672982417607406  0.5741362659610965  1.0000
  H   H15       1.0  0.06986061369779484  0.20541308147208226  0.08257840265331318  1.0000
  H   H16       1.0  0.8333494796207905  0.37483687372426844  0.15807750514095487  1.0000
  H   H17       1.0  0.7386567172730716  0.49905954695442234  0.016355886503151895  1.0000
  H   H18       1.0  0.8456678061295814  0.40105757744785553  0.6225493216814102  1.0000
  H   H19       1.0  0.014590624248446593  0.2427923547334394  0.543400420897342  1.0000
  H   H20       1.0  0.6446325311506449  0.6758810750102524  0.4578887459536576  1.0000
  H   H21       1.0  0.5734166976305111  0.6309514883617562  0.5900734433628831  1.0000
  H   H22       1.0  0.6274657140435888  0.769768019493299  0.6106719532036058  1.0000
  Zn  Zn1       1.0  0.8145543388183358  0.3213159857876582  0.3970104118728197  1.0000
  Zn  Zn2       1.0  0.9791766762690279  0.3137695823416151  0.3943254282446569  1.0000
  C   C30       1.0  0.897723507997851  0.3144836113647538  0.6588859851216737  1.0000
  C   C31       1.0  0.8960093052203218  0.32060345549842917  0.13244996712676893  1.0000
  C   C32       1.0  0.896846553460807  0.5462228513947567  0.3899253361688564  1.0000
  C   C33       1.0  0.896886203833207  0.0888627140234981  0.40141069383044425  1.0000
  O   O1        1.0  0.9586560097795894  0.3198024944111  0.18512533681365095  1.0000
  O   O2        1.0  0.9600213471128096  0.3095560790712446  0.6041723601266165  1.0000
  O   O3        1.0  0.9593123579370851  0.49668849572891505  0.38698474689207285  1.0000
  O   O4        1.0  0.9593649424294186  0.13267008849484418  0.4023128429067744  1.0000
  O   O5        1.0  0.8343660164803962  0.5024154822109537  0.3890229981193749  1.0000
  O   O6        1.0  0.8350750054027299  0.3152845695747357  0.6062105345117337  1.0000
  O   O7        1.0  0.8337096624840993  0.32553092857076993  0.1871617784962909  1.0000
  O   O8        1.0  0.8344185954822745  0.13839851448962381  0.4043493926395074  1.0000
