data_image0
_chemical_formula_structural       NC9NC5H8C7OH6C6OCH8Zn2C4O8
_chemical_formula_sum              "N2 C32 H22 O10 Zn2"
_cell_length_a       17.807436237873137
_cell_length_b       9.274078303013075
_cell_length_c       9.273891588657152
_cell_angle_alpha    86.24854706109078
_cell_angle_beta     89.08663702953788
_cell_angle_gamma    87.81002060722456

_space_group_name_H-M_alt    "P 1"
_space_group_IT_number       1

loop_
  _space_group_symop_operation_xyz
  'x, y, z'

loop_
  _atom_site_type_symbol
  _atom_site_label
  _atom_site_symmetry_multiplicity
  _atom_site_fract_x
  _atom_site_fract_y
  _atom_site_fract_z
  _atom_site_occupancy
  N   N1        1.0  0.7039814258131603  0.5267284030774422  0.40331774559630373  1.0000
  C   C1        1.0  0.6436371209367795  0.48752998164298744  0.3909582585864668  1.0000
  C   C2        1.0  0.5685754380738157  0.438771461960894  0.37558439891573325  1.0000
  C   C3        1.0  0.5512488148705827  0.3583798022336995  0.2587841960442818  1.0000
  C   C4        1.0  0.4783687140115405  0.3109143520323514  0.24376506545684706  1.0000
  C   C5        1.0  0.4217688456276182  0.3434208986784113  0.3455087949331499  1.0000
  C   C6        1.0  0.3443151401045433  0.2931058264534343  0.329638851081806  1.0000
  C   C7        1.0  0.2815726304188524  0.38417871056965436  0.3587166566269815  1.0000
  C   C8        1.0  0.2085513744150041  0.3364878796985302  0.3437120004602583  1.0000
  C   C9        1.0  0.1447417456096122  0.4305538268083575  0.37320315491129574  1.0000
  N   N2        1.0  0.0934518291022371  0.5061763515569098  0.39691321624510434  1.0000
  C   C10       1.0  0.197690684315851  0.19743736125220868  0.29960049760317053  1.0000
  C   C11       1.0  0.2595759332160865  0.10634900559853078  0.2705133312189487  1.0000
  C   C12       1.0  0.3324807432944603  0.15359954698132183  0.2852917937462476  1.0000
  C   C13       1.0  0.4397832451230566  0.42436389655643203  0.46255406791528375  1.0000
  C   C14       1.0  0.5127178483722018  0.471616285873105  0.4773997638339944  1.0000
  H   H1        1.0  0.5940113850457895  0.33267476239965266  0.1791063959270338  1.0000
  H   H2        1.0  0.4660441479861182  0.2504437978210756  0.1515377710757866  1.0000
  H   H3        1.0  0.289401869418769  0.4927295902422901  0.39111070615076526  1.0000
  H   H4        1.0  0.1414606888806819  0.15952473577591708  0.28772127283030113  1.0000
  H   H5        1.0  0.2510474639292519  0.9986968115308639  0.23678973326224728  1.0000
  H   H6        1.0  0.3795709161831221  0.08038083093939496  0.2639183475904605  1.0000
  H   H7        1.0  0.397736478488767  0.4494833787059036  0.5436668348044031  1.0000
  H   H8        1.0  0.525567000856599  0.5334319730787724  0.5684751586838963  1.0000
  C   C15       1.0  0.9009639881830042  0.09285469648390698  0.3987859891079413  1.0000
  C   C16       1.0  0.886817832025684  0.17589141640906458  0.2688987369547178  1.0000
  C   C17       1.0  0.8661639708251909  0.11074945459045149  0.14404207563201643  1.0000
  C   C18       1.0  0.8594568083086349  0.9605034427538374  0.1489960745035115  1.0000
  C   C19       1.0  0.8744565798229237  0.8763388742694461  0.27618664027676676  1.0000
  C   C20       1.0  0.8964764789554592  0.9400387071877124  0.401457372073599  1.0000
  C   C21       1.0  0.8510782353868275  0.20125278603373564  0.010139118731467889  1.0000
  O   O1        1.0  0.8321012258253302  0.14592736259819405  0.8963201571810622  1.0000
  H   H9        1.0  0.8976032647672366  0.17286203851689663  0.753738027206428  1.0000
  H   H10       1.0  0.8901884681112285  0.29255111209442597  0.2657343804695316  1.0000
  H   H11       1.0  0.843299182424546  0.9076459020846669  0.054102513861034485  1.0000
  H   H12       1.0  0.870541586838849  0.7601013607730763  0.2754799462842017  1.0000
  H   H13       1.0  0.8975052446138961  0.6432450061536007  0.6398253310261299  1.0000
  H   H14       1.0  0.8562706260366587  0.31727970567851194  0.008539097800050799  1.0000
  C   C22       1.0  0.8999716075944122  0.5125614120224122  0.9768140378538588  1.0000
  C   C23       1.0  0.9611930680875694  0.5702412050868577  0.044567818739225995  1.0000
  C   C24       1.0  0.01809466995949438  0.6389173153328549  0.9640422157541084  1.0000
  C   C25       1.0  0.013977728539303902  0.6502642761837403  0.8127034365007528  1.0000
  C   C26       1.0  0.9543397571121868  0.59162774161084  0.7435787407359706  1.0000
  C   C27       1.0  0.8974688297970195  0.5203319612126838  0.8234292612350709  1.0000
  O   O2        1.0  0.07727317897360053  0.6949293758328485  0.03845705328374116  1.0000
  C   C28       1.0  0.1387565508911286  0.7675791197721336  0.9706024105112077  1.0000
  H   H15       1.0  0.7216867103790123  0.4333973139766434  0.0904913565202754  1.0000
  H   H16       1.0  0.9640796974565602  0.5650612638011889  0.16143888312857357  1.0000
  H   H17       1.0  0.05697724520087899  0.7030625226617309  0.7472431033585778  1.0000
  H   H18       1.0  0.9536939925880744  0.599094128256197  0.6265309781387116  1.0000
  H   H19       1.0  0.7786097520096098  0.4612555004402308  0.5497407167862378  1.0000
  H   H20       1.0  0.11806651491474263  0.8662581017275466  0.9068463559774522  1.0000
  H   H21       1.0  0.17047087314909426  0.6943350693055048  0.8994487272114093  1.0000
  H   H22       1.0  0.17704336463893222  0.8000283451477288  0.05492208186675551  1.0000
  Zn  Zn1       1.0  0.8163741657286931  0.5207937524814443  0.4014778613800265  1.0000
  Zn  Zn2       1.0  0.9810590982404355  0.5120993525520223  0.39876491409173553  1.0000
  C   C29       1.0  0.8979706835685517  0.51311673612407  0.6633827816581708  1.0000
  C   C30       1.0  0.8994643686958184  0.519778095327911  0.1368601114111112  1.0000
  C   C31       1.0  0.8973378160083524  0.7798503936976191  0.3952081762385109  1.0000
  C   C32       1.0  0.900097189013436  0.25304270835302534  0.4050347891445012  1.0000
  O   O3        1.0  0.96179124164772  0.5188943076044894  0.18954346653516096  1.0000
  O   O4        1.0  0.9606358708340221  0.5074005834608069  0.6086399439268395  1.0000
  O   O5        1.0  0.9601239753540265  0.7227914434948879  0.39208707127908204  1.0000
  O   O6        1.0  0.9623030811967589  0.30350345986410665  0.40609623205835077  1.0000
  O   O7        1.0  0.8351301265734987  0.729389648137833  0.39414654433162966  1.0000
  O   O8        1.0  0.8356420130972049  0.5140005204735612  0.6106993455838761  1.0000
  O   O9        1.0  0.8367973893505519  0.5254941784402876  0.1916011349267177  1.0000
  O   O10       1.0  0.8373092286316768  0.3101033213746789  0.4081540084926938  1.0000
