data_image0
_chemical_formula_structural       NC8NC6H8C6BrH5C9H8Zn2C4O8
_chemical_formula_sum              "N2 C33 H21 Br1 Zn2 O8"
_cell_length_a       17.457602349358154
_cell_length_b       10.302969083221269
_cell_length_c       9.275155815604963
_cell_angle_alpha    86.05280197498422
_cell_angle_beta     93.22066324705655
_cell_angle_gamma    91.68807063265206

_space_group_name_H-M_alt    "P 1"
_space_group_IT_number       1

loop_
  _space_group_symop_operation_xyz
  'x, y, z'

loop_
  _atom_site_type_symbol
  _atom_site_label
  _atom_site_symmetry_multiplicity
  _atom_site_fract_x
  _atom_site_fract_y
  _atom_site_fract_z
  _atom_site_occupancy
  N   N1        1.0  0.7173607676323654  0.4403208960604674  0.4752786572190455  1.0000
  C   C1        1.0  0.6562436931564556  0.3943175157218768  0.4634941060391493  1.0000
  C   C2        1.0  0.5802115046575663  0.33709510675404064  0.4488447169373948  1.0000
  C   C3        1.0  0.5219590319319062  0.37790050244356777  0.5319889156298172  1.0000
  C   C4        1.0  0.4473671916898781  0.32280105543020454  0.5180216163455456  1.0000
  C   C5        1.0  0.3855401263121779  0.36588763475162356  0.606074476148136  1.0000
  C   C6        1.0  0.3107878565660351  0.3838612134036199  0.544171185573544  1.0000
  C   C7        1.0  0.2525357790337654  0.4244836896180759  0.6274352240887671  1.0000
  C   C8        1.0  0.1763371853246088  0.44304350368863643  0.5630725416342057  1.0000
  N   N2        1.0  0.11508643304665392  0.4579592178976206  0.5113251126202369  1.0000
  C   C9        1.0  0.268545683504775  0.4473801075543913  0.7731670605081695  1.0000
  C   C10       1.0  0.3425146783581383  0.4297987871753026  0.8355006252079178  1.0000
  C   C11       1.0  0.4007568386395479  0.3893603193455215  0.7527447048731222  1.0000
  C   C12       1.0  0.43231118667548823  0.22620645178057242  0.419319428741987  1.0000
  C   C13       1.0  0.4905534161111255  0.18568315219545717  0.33661927525024526  1.0000
  C   C14       1.0  0.5643625184192889  0.2408997593206672  0.35119707592482796  1.0000
  H   H1        1.0  0.5345487469492257  0.4536545453707892  0.6059559177472413  1.0000
  H   H2        1.0  0.2980666801493037  0.3680014296240177  0.4309134164623929  1.0000
  H   H3        1.0  0.2239016458463749  0.47876862606334947  0.8384809465566749  1.0000
  H   H4        1.0  0.35472076750426806  0.4472124541495517  0.9483440361759932  1.0000
  H   H5        1.0  0.45741245238418865  0.3747775476335842  0.803927658284183  1.0000
  H   H6        1.0  0.3757872570597484  0.1807922317420998  0.407494783993964  1.0000
  H   H7        1.0  0.47847309255377024  0.11103470407896965  0.2613220119636521  1.0000
  H   H8        1.0  0.6090084845564097  0.20864630551615204  0.2864505917733353  1.0000
  C   C15       1.0  0.916227281667615  0.06789274219930475  0.49330849309790104  1.0000
  C   C16       1.0  0.9958733898297294  0.06869941354919762  0.5248162437610093  1.0000
  C   C17       1.0  0.03538214574652554  0.9521617138285855  0.5404455970035351  1.0000
  C   C18       1.0  0.9958734491781186  0.8336170544626982  0.5248159756664021  1.0000
  C   C19       1.0  0.9162272931494762  0.8303777593252262  0.49330839858852316  1.0000
  C   C20       1.0  0.8767888484251779  0.948133551348069  0.477706737911898  1.0000
  Br  Br1       1.0  0.14371456427833174  0.9549132840631418  0.5833019521184806  1.0000
  H   H9        1.0  0.8862492538590143  0.39489078015948254  0.4814486270666496  1.0000
  H   H10       1.0  0.02757899998405633  0.15950402877440517  0.5373590421964047  1.0000
  H   H11       1.0  0.02757908813237253  0.7444230935129377  0.5373584009668506  1.0000
  H   H12       1.0  0.8153627073789033  0.9465733221980999  0.4534069415577797  1.0000
  H   H13       1.0  0.8862490411506662  0.5018567950181743  0.48145073749891143  1.0000
  C   C21       1.0  0.9148211499403793  0.4457912927246963  0.06994977626054122  1.0000
  C   C22       1.0  0.8547845454335269  0.5063888161404224  0.13232343462320517  1.0000
  C   C23       1.0  0.7998883165981403  0.5758426474459528  0.04606333144940833  1.0000
  C   C24       1.0  0.8040106415837601  0.586159160593974  0.8958551451063461  1.0000
  C   C25       1.0  0.8625028803071766  0.5247956110723087  0.8316331539170796  1.0000
  C   C26       1.0  0.917633410259766  0.45247918525517683  0.9166670802804284  1.0000
  C   C27       1.0  0.7475631078697982  0.6585773219266622  0.8071418261640959  1.0000
  C   C28       1.0  0.7002984672773511  0.7192177514896809  0.7328301098241434  1.0000
  C   C29       1.0  0.6429513249607932  0.7927946821443337  0.6426539761454055  1.0000
  H   H14       1.0  0.09295265897025562  0.3489445335615595  0.19905195505861384  1.0000
  H   H15       1.0  0.8513366507024693  0.5026370785747183  0.24880248542627714  1.0000
  H   H16       1.0  0.754600035274281  0.6226310543684097  0.09677181289028458  1.0000
  H   H17       1.0  0.863920858553301  0.5309633711517534  0.7146153707448879  1.0000
  H   H18       1.0  0.036489717787631326  0.38256636196743243  0.6538568223021333  1.0000
  H   H19       1.0  0.6585464291729054  0.7972164655296754  0.5280683948395479  1.0000
  H   H20       1.0  0.5857934631981494  0.7440285901543953  0.6524999621690761  1.0000
  H   H21       1.0  0.6410090860337498  0.8929561574799512  0.6789826634291876  1.0000
  Zn  Zn1       1.0  0.8321358310033733  0.4454075188891784  0.48568920967232465  1.0000
  Zn  Zn2       1.0  0.0003113946285351332  0.4528620438681734  0.5009263633659289  1.0000
  C   C30       1.0  0.9171001323015436  0.44604295543272965  0.7566192611364402  1.0000
  C   C31       1.0  0.9153489302722962  0.45222832794340206  0.2299966197917327  1.0000
  C   C32       1.0  0.916204260404612  0.686206321295511  0.48756309441154744  1.0000
  C   C33       1.0  0.9162447450379256  0.21206340033815851  0.4990528581794149  1.0000
  O   O1        1.0  0.9793478081143597  0.4572119452080483  0.2894922229450272  1.0000
  O   O2        1.0  0.9807426145549049  0.4467161674525606  0.7086878900654574  1.0000
  O   O3        1.0  0.9800183312995325  0.6406510963719925  0.4914230538670168  1.0000
  O   O4        1.0  0.9800720336237762  0.26327702217834426  0.5067569458481733  1.0000
  O   O5        1.0  0.8523751346180408  0.6349925380364974  0.4798586219828047  1.0000
  O   O6        1.0  0.8530994176146246  0.4410591683170173  0.6971233813111799  1.0000
  O   O7        1.0  0.8517046054681097  0.45155488714234115  0.2779259808802099  1.0000
  O   O8        1.0  0.8524288313333908  0.2576199556803995  0.4951908118713748  1.0000
