data_image0
_chemical_formula_structural       NC8NC6H8C6OCH8C7F3H5Zn2C4O8
_chemical_formula_sum              "N2 C32 H21 O9 F3 Zn2"
_cell_length_a       17.457602349358154
_cell_length_b       9.273888216677433
_cell_length_c       9.272291681409872
_cell_angle_alpha    86.26440928452506
_cell_angle_beta     93.27365386630078
_cell_angle_gamma    91.10627454168798

_space_group_name_H-M_alt    "P 1"
_space_group_IT_number       1

loop_
  _space_group_symop_operation_xyz
  'x, y, z'

loop_
  _atom_site_type_symbol
  _atom_site_label
  _atom_site_symmetry_multiplicity
  _atom_site_fract_x
  _atom_site_fract_y
  _atom_site_fract_z
  _atom_site_occupancy
  N   N1        1.0  0.7081182639236822  0.5991936857636266  0.47956047884210795  1.0000
  C   C1        1.0  0.6472665439042993  0.5481064018427935  0.4676179251251136  1.0000
  C   C2        1.0  0.5715644274107263  0.4845602588019191  0.452772003973416  1.0000
  C   C3        1.0  0.5131124553985481  0.5298866084954617  0.5360818822590918  1.0000
  C   C4        1.0  0.4388385098245883  0.46869806101514166  0.5219253909763377  1.0000
  C   C5        1.0  0.3768009209470985  0.5165583747980325  0.6101532840345119  1.0000
  C   C6        1.0  0.3019121560541371  0.5365077305917834  0.5482883670475849  1.0000
  C   C7        1.0  0.24346171660629742  0.5816309724444146  0.6317175154496655  1.0000
  C   C8        1.0  0.16712195845997643  0.6022309370272649  0.5673943035489992  1.0000
  N   N2        1.0  0.105757747642841  0.6187862278777279  0.5156785875929619  1.0000
  C   C9        1.0  0.2594085738620048  0.607079811920928  0.7775771142904153  1.0000
  C   C10       1.0  0.3335119640055604  0.5875661155766905  0.8398737684731981  1.0000
  C   C11       1.0  0.3919516523041782  0.5426472900057135  0.756953532145936  1.0000
  C   C12       1.0  0.4243031796170363  0.3614169529043052  0.4228654661268163  1.0000
  C   C13       1.0  0.48274346463676965  0.3164039329388326  0.34000073249886453  1.0000
  C   C14       1.0  0.5562342829452723  0.3777226798097475  0.35476833144263  1.0000
  H   H1        1.0  0.5252921351195698  0.614020968504781  0.6103282306585174  1.0000
  H   H2        1.0  0.2892285745794201  0.5188780015379328  0.43493777562098734  1.0000
  H   H3        1.0  0.21461174624508123  0.6419461744457844  0.843018921879594  1.0000
  H   H4        1.0  0.34567109425892373  0.6069213214341911  0.9528150533729038  1.0000
  H   H5        1.0  0.44871848347277726  0.5264616329500997  0.8081056878137918  1.0000
  H   H6        1.0  0.36804111182702226  0.3109839080980896  0.4108847752756817  1.0000
  H   H7        1.0  0.47106600290165007  0.23349709372260374  0.2644273535181101  1.0000
  H   H8        1.0  0.6010384174675656  0.34189592135668234  0.2898912321515541  1.0000
  C   C15       1.0  0.9091889783090555  0.18562585602817427  0.4963510176286119  1.0000
  C   C16       1.0  0.8907867094958616  0.2668560144758738  0.3659062102975228  1.0000
  C   C17       1.0  0.865878353768498  0.1998276378584829  0.240526637619201  1.0000
  C   C18       1.0  0.8592286250730287  0.0485645134560726  0.24511583665000258  1.0000
  C   C19       1.0  0.8784233460977272  0.9661540495076157  0.3728593935141482  1.0000
  C   C20       1.0  0.9046944546568407  0.032343401932591  0.4989011563548067  1.0000
  O   O1        1.0  0.8479570834280284  0.2872856566023736  0.11436409571249118  1.0000
  C   C21       1.0  0.8218492358952719  0.23391462701785182  0.9793164235606748  1.0000
  H   H9        1.0  0.9167749357787501  0.26578622231455085  0.8518265408158103  1.0000
  H   H10       1.0  0.8940111723981229  0.3838530967375169  0.36192576928069564  1.0000
  H   H11       1.0  0.8399390580171424  0.993361876851524  0.15012128938069957  1.0000
  H   H12       1.0  0.8744345261851838  0.8494848963502691  0.37201701779896346  1.0000
  H   H13       1.0  0.9130150716279624  0.7359033157429863  0.7376203555859095  1.0000
  H   H14       1.0  0.7668527866470953  0.1732260978698834  0.9909366243809292  1.0000
  H   H15       1.0  0.8657364374137015  0.16309076025382252  0.9400726283019623  1.0000
  H   H16       1.0  0.8122173815042026  0.326428547328631  0.8987337778916697  1.0000
  C   C22       1.0  0.9053463747051697  0.6052043474446489  0.07410753813886939  1.0000
  C   C23       1.0  0.9574304981260141  0.5170133455009818  0.1587407648181942  1.0000
  C   C24       1.0  0.013615346125559924  0.4419463158412571  0.09477520718663701  1.0000
  C   C25       1.0  0.01995021747069181  0.45483081272640535  0.9445021874808348  1.0000
  C   C26       1.0  0.9663626241836318  0.5381702590172497  0.8585455133926199  1.0000
  C   C27       1.0  0.9085370628349019  0.6127649508644264  0.9211445933225022  1.0000
  C   C28       1.0  0.07931942957725857  0.3704203276622744  0.8750043734252348  1.0000
  F   F1        1.0  0.143693451305982  0.3492429969885771  0.9676856406134053  1.0000
  F   F2        1.0  0.10190159704709933  0.44369972935363955  0.7492351932874439  1.0000
  F   F3        1.0  0.04840487597129561  0.23748719279530084  0.8417782896789578  1.0000
  H   H17       1.0  0.7957518432785419  0.8912089283842759  0.14526144414256548  1.0000
  H   H18       1.0  0.9557053089198004  0.5083187780834351  0.27560067774001507  1.0000
  H   H19       1.0  0.052634405009500895  0.3746368536792011  0.16329087140070286  1.0000
  H   H20       1.0  0.9685297751954168  0.5421235960144568  0.741768001483341  1.0000
  H   H21       1.0  0.7339230062521329  0.7423070165826482  0.7924243965238866  1.0000
  Zn  Zn1       1.0  0.8228684813618783  0.6048438783143408  0.48999170040312  1.0000
  Zn  Zn2       1.0  0.9910076231770613  0.6131243203894632  0.5052591380866185  1.0000
  C   C29       1.0  0.9079627384119988  0.6055923281144548  0.7610190308817388  1.0000
  C   C30       1.0  0.90591519307851  0.6123777813353304  0.23423212136086313  1.0000
  C   C31       1.0  0.9055184307722314  0.8722442707971922  0.4926716229377097  1.0000
  C   C32       1.0  0.9083594528281358  0.34572410439414347  0.5025795957694215  1.0000
  O   O2        1.0  0.9699140551615514  0.6179213462539666  0.29376528833719107  1.0000
  O   O3        1.0  0.9715775987010733  0.6063323358216195  0.7130730774028571  1.0000
  O   O4        1.0  0.9696029348570214  0.8216571228366798  0.49638057329460583  1.0000
  O   O5        1.0  0.9718886611690198  0.40259656576137326  0.5104576791300564  1.0000
  O   O6        1.0  0.8419873859922457  0.8153716301182241  0.484793154142074  1.0000
  O   O7        1.0  0.8439620403487653  0.6000485745374058  0.7014855865681884  1.0000
  O   O8        1.0  0.8422984905952693  0.6116375192555923  0.28217606338612544  1.0000
  O   O9        1.0  0.8442730970616471  0.3963127294163251  0.49886856227676857  1.0000
