data_image0
_chemical_formula_structural       NC8NC6H8C6NCOH7C6OCH8Zn2C4O8
_chemical_formula_sum              "N3 C32 H23 O10 Zn2"
_cell_length_a       17.457602349358154
_cell_length_b       10.299619329790078
_cell_length_c       9.273891588657152
_cell_angle_alpha    86.08234378481637
_cell_angle_beta     92.54290593679647
_cell_angle_gamma    91.71362633690529

_space_group_name_H-M_alt    "P 1"
_space_group_IT_number       1

loop_
  _space_group_symop_operation_xyz
  'x, y, z'

loop_
  _atom_site_type_symbol
  _atom_site_label
  _atom_site_symmetry_multiplicity
  _atom_site_fract_x
  _atom_site_fract_y
  _atom_site_fract_z
  _atom_site_occupancy
  N   N1        1.0  0.7273340921604831  0.44065704997600075  0.47618923510649025  1.0000
  C   C1        1.0  0.6662788758210382  0.39463740860465535  0.46440377789823284  1.0000
  C   C2        1.0  0.590323573768127  0.3373947737927483  0.4497532575683103  1.0000
  C   C3        1.0  0.5315590519391945  0.3782212325436589  0.5328643952510044  1.0000
  C   C4        1.0  0.4570403739707399  0.32310232272759  0.518895942140162  1.0000
  C   C5        1.0  0.3946709950941052  0.36621116641882034  0.6069137712993802  1.0000
  C   C6        1.0  0.3203128464300867  0.3841850236888653  0.5450418185880623  1.0000
  C   C7        1.0  0.2615479173353686  0.4248285135329397  0.6282727148314662  1.0000
  C   C8        1.0  0.1857590689054179  0.4433885750914255  0.5639425975050862  1.0000
  N   N2        1.0  0.12483774907818511  0.4583044861913441  0.5122213498895265  1.0000
  C   C9        1.0  0.2766473647371069  0.44774579974198603  0.7739398425427273  1.0000
  C   C10       1.0  0.3502196368931708  0.43016436952025927  0.8362419234651015  1.0000
  C   C11       1.0  0.4089715020386838  0.38970499520775226  0.7535189342686857  1.0000
  C   C12       1.0  0.4425794009288194  0.22646682025090392  0.4202263068734653  1.0000
  C   C13       1.0  0.5013309618853047  0.18592259127559796  0.3375590467453735  1.0000
  C   C14       1.0  0.5750630934839034  0.24115875563667166  0.35213773312152097  1.0000
  H   H1        1.0  0.5437037496085854  0.45400703606926607  0.6068074708413602  1.0000
  H   H2        1.0  0.3082997614359417  0.36830966034820567  0.43183460782590033  1.0000
  H   H3        1.0  0.2316009096333257  0.4791506444509481  0.8392276649134678  1.0000
  H   H4        1.0  0.3617206547406092  0.4475940911108838  0.9490351851661196  1.0000
  H   H5        1.0  0.4653013222401403  0.37512208494420163  0.804676015544509  1.0000
  H   H6        1.0  0.3861177386121091  0.181036529986065  0.40840085668963577  1.0000
  H   H7        1.0  0.489704316774132  0.11124262599055545  0.26228648343174843  1.0000
  H   H8        1.0  0.6201076779883579  0.2088887419613925  0.2874169280555028  1.0000
  C   C15       1.0  0.9259879651856789  0.06810761284430278  0.4941588907138461  1.0000
  C   C16       1.0  0.8893929065062961  0.07347820005417338  0.3559391861942529  1.0000
  C   C17       1.0  0.8721007010981805  0.9594987877495883  0.2854003911089529  1.0000
  C   C18       1.0  0.8896210000417557  0.8383307708039028  0.3560708225689222  1.0000
  C   C19       1.0  0.9261911380912508  0.8308443573211054  0.49426484764213896  1.0000
  C   C20       1.0  0.9444403184616771  0.9463478015349035  0.5622799357233557  1.0000
  N   N3        1.0  0.833585506697819  0.9687537841294924  0.14487376215549008  1.0000
  C   C21       1.0  0.8459820192879043  0.8837041457807288  0.0325846119590143  1.0000
  O   O1        1.0  0.8998120603136651  0.8044187983150364  0.04352361437979213  1.0000
  H   H9        1.0  0.9942865562199404  0.26515212324498694  0.7555293237723819  1.0000
  H   H10       1.0  0.8746859516443538  0.16649815523811307  0.30177706616069333  1.0000
  H   H11       1.0  0.8733675272201755  0.7498106245487867  0.30473834586576887  1.0000
  H   H12       1.0  0.9726600828130111  0.9413324796519031  0.668824691904377  1.0000
  H   H13       1.0  0.9391963026116444  0.5004146470548725  0.5482360555749342  1.0000
  H   H14       1.0  0.7981516581139888  0.04759250783741242  0.11831745720459041  1.0000
  H   H15       1.0  0.8098508918458409  0.8902014149826661  0.9346569222866696  1.0000
  C   C22       1.0  0.9273451874408406  0.4460922308324269  0.07104994537834863  1.0000
  C   C23       1.0  0.9901734105251656  0.5037350576297828  0.1453250674627271  1.0000
  C   C24       1.0  0.04865348934081104  0.5708824134560464  0.07082371422752409  1.0000
  C   C25       1.0  0.044514488460936086  0.5807216465575835  0.9190090674086502  1.0000
  C   C26       1.0  0.9832974842079271  0.5223639969144089  0.8435377077913828  1.0000
  C   C27       1.0  0.9248339267392118  0.45285965935481753  0.9173737394967443  1.0000
  O   O2        1.0  0.1093865951502393  0.6268332465078434  0.1515416465536179  1.0000
  C   C28       1.0  0.17256675535994637  0.6979854990409584  0.09020014714211744  1.0000
  H   H16       1.0  0.7448827406532205  0.3582271757995368  0.16551853816044693  1.0000
  H   H17       1.0  0.9930911854727287  0.49933691846434813  0.2625229844442527  1.0000
  H   H18       1.0  0.08871191999560502  0.6322752776350469  0.8580989425594172  1.0000
  H   H19       1.0  0.9826803753555202  0.5290298491388281  0.7264013610950317  1.0000
  H   H20       1.0  0.8031541814273261  0.3886072553198552  0.6308945545801738  1.0000
  H   H21       1.0  0.1520011052957786  0.7849556948623884  0.02395045746162472  1.0000
  H   H22       1.0  0.2045310135589451  0.6349509540987122  0.022677517494195776  1.0000
  H   H23       1.0  0.2118379500935481  0.7307709347594324  0.17860703116475718  1.0000
  Zn  Zn1       1.0  0.8420450354117704  0.44574630265017734  0.4865956448142843  1.0000
  Zn  Zn2       1.0  0.010126753733640914  0.45320467991178615  0.501826736414954  1.0000
  C   C29       1.0  0.925305532110816  0.4464066948330465  0.7573995663862696  1.0000
  C   C30       1.0  0.9268680924986121  0.4525460089437561  0.2310231228286781  1.0000
  C   C31       1.0  0.9261658476236655  0.6866247584164487  0.4885021361311612  1.0000
  C   C32       1.0  0.9260077189875727  0.2123263831089417  0.49992062449605257  1.0000
  O   O3        1.0  0.9904941097061665  0.4575367053277539  0.29049170165212357  1.0000
  O   O4        1.0  0.9892496509331793  0.4470757511646255  0.709490618713577  1.0000
  O   O5        1.0  0.989943502276351  0.6410548493063266  0.4923539635562746  1.0000
  O   O6        1.0  0.989800201331162  0.2635576130673769  0.5076282435677311  1.0000
  O   O7        1.0  0.8623715304562309  0.6353933669507614  0.4807941324563034  1.0000
  O   O8        1.0  0.8616776797532304  0.44141582851664807  0.6979307109961363  1.0000
  O   O9        1.0  0.8629221437059411  0.45187672357184616  0.2789300614234471  1.0000
  O   O10       1.0  0.8622282350047508  0.257897622886321  0.49606671137554637  1.0000
