data_image0
_chemical_formula_structural       NC9NC5H8C8H10C6NH7Zn2C4O8
_chemical_formula_sum              "N3 C32 H25 Zn2 O8"
_cell_length_a       17.807436237873137
_cell_length_b       9.275653711864159
_cell_length_c       9.274774538082514
_cell_angle_alpha    85.24959572730752
_cell_angle_beta     89.72824813723155
_cell_angle_gamma    87.8440138982238

_space_group_name_H-M_alt    "P 1"
_space_group_IT_number       1

loop_
  _space_group_symop_operation_xyz
  'x, y, z'

loop_
  _atom_site_type_symbol
  _atom_site_label
  _atom_site_symmetry_multiplicity
  _atom_site_fract_x
  _atom_site_fract_y
  _atom_site_fract_z
  _atom_site_occupancy
  N   N1        1.0  0.6945820196705793  0.5552511075106055  0.4017120702664727  1.0000
  C   C1        1.0  0.6341491871134253  0.5162837891770058  0.3893340741066731  1.0000
  C   C2        1.0  0.5589773854476808  0.46781273664379874  0.3739371910705076  1.0000
  C   C3        1.0  0.5409038074811421  0.3895464057825646  0.2569966390091416  1.0000
  C   C4        1.0  0.46791618058944573  0.34236175586986173  0.24195503631296522  1.0000
  C   C5        1.0  0.4119553803483314  0.373024533105317  0.3438165510471245  1.0000
  C   C6        1.0  0.3343880078950546  0.3230062006330552  0.3279228429125496  1.0000
  C   C7        1.0  0.2718534198250361  0.41353560737576434  0.35704405756758484  1.0000
  C   C8        1.0  0.1987246576089482  0.36612536100378223  0.34201691863703876  1.0000
  C   C9        1.0  0.1351264310763252  0.4596397616038197  0.37155230168709896  1.0000
  N   N2        1.0  0.0840064748762038  0.5348188592026819  0.3952979211145269  1.0000
  C   C10       1.0  0.1875482714856852  0.2278994868261195  0.29783945721136407  1.0000
  C   C11       1.0  0.2492255361154927  0.13735478070414198  0.2687088693931159  1.0000
  C   C12       1.0  0.3222363178914988  0.18432891102256055  0.2835095089673214  1.0000
  C   C13       1.0  0.430718420149197  0.4518376653721723  0.4610025133045752  1.0000
  C   C14       1.0  0.5037594113307564  0.49881242921121216  0.47587046176420666  1.0000
  H   H1        1.0  0.5831658322459573  0.365285313430352  0.17722656900272926  1.0000
  H   H2        1.0  0.455002737004606  0.28356878679793573  0.14961727846906947  1.0000
  H   H3        1.0  0.27991648531012  0.521479593552326  0.38948731203017783  1.0000
  H   H4        1.0  0.1312331149874934  0.19020903229751718  0.28594241422394173  1.0000
  H   H5        1.0  0.2404552983339709  0.030333306179577413  0.23493468505334425  1.0000
  H   H6        1.0  0.3691717193860972  0.11151094355587499  0.26210340724893255  1.0000
  H   H7        1.0  0.3891808894622317  0.47548740712338766  0.5422090868704119  1.0000
  H   H8        1.0  0.5171907356602109  0.5589710592213604  0.5670551907333221  1.0000
  C   C15       1.0  0.8914024525376464  0.12154696915030061  0.39712353173803683  1.0000
  C   C16       1.0  0.8733522633934934  0.20701989159225698  0.2687087755708992  1.0000
  C   C17       1.0  0.8485449348417614  0.14416578768633204  0.14599065972471315  1.0000
  C   C18       1.0  0.8429023974972956  0.9938279969590297  0.15069495107063657  1.0000
  C   C19       1.0  0.8617545125470126  0.9071497335820505  0.2763152236445048  1.0000
  C   C20       1.0  0.8871933064286608  0.9685114128738229  0.3998988038960518  1.0000
  C   C21       1.0  0.8305016443594159  0.2370970707870108  0.008778788862020326  1.0000
  C   C22       1.0  0.9004922171436838  0.2560718421740886  0.9147542480329287  1.0000
  H   H9        1.0  0.9602579435232965  0.3807376838054699  0.5960230517212299  1.0000
  H   H10       1.0  0.8769376037003112  0.3236842937753883  0.26476159678556654  1.0000
  H   H11       1.0  0.8246034944550202  0.9433709214823347  0.056332853481358525  1.0000
  H   H12       1.0  0.8582768297146225  0.7908687465949931  0.2754915619199172  1.0000
  H   H13       1.0  0.8950316890177109  0.6669222188205125  0.6377580706992645  1.0000
  H   H14       1.0  0.7864932063503437  0.18707173931474985  0.946747641849861  1.0000
  H   H15       1.0  0.8077796730071399  0.34523006738059503  0.03473298744370945  1.0000
  H   H16       1.0  0.9444740394242807  0.3094422505803254  0.9736125234483102  1.0000
  H   H17       1.0  0.9229510029138605  0.1492453693827731  0.884687789242252  1.0000
  H   H18       1.0  0.8859956768500418  0.32476790720888804  0.8142655744161655  1.0000
  C   C23       1.0  0.8879310067478974  0.5487883982316426  0.9747291651729646  1.0000
  C   C24       1.0  0.9407527513208331  0.631096978860219  0.040867553627922826  1.0000
  C   C25       1.0  0.9970046612495986  0.7013493485252278  0.9594100650641226  1.0000
  C   C26       1.0  0.0008917137403177122  0.6896011712883887  0.8103317348507977  1.0000
  C   C27       1.0  0.9482952616421507  0.6104567864558756  0.7424972228136038  1.0000
  C   C28       1.0  0.8906647531923124  0.5412699800486145  0.8222931961714739  1.0000
  N   N3        1.0  0.050690046434096026  0.7834120379580063  0.028538832858304275  1.0000
  H   H19       1.0  0.7770120386507798  0.27277253399745716  0.10157572633802414  1.0000
  H   H20       1.0  0.939366155495692  0.6380075259411908  0.15693237305785068  1.0000
  H   H21       1.0  0.04432646850033284  0.7430254421417819  0.746263573575058  1.0000
  H   H22       1.0  0.9516659567704876  0.6062695548155841  0.6262558392643083  1.0000
  H   H23       1.0  0.8136273372599072  0.3598749023101162  0.5568876710755464  1.0000
  H   H24       1.0  0.04846304032144144  0.7925700062060781  0.13997432926683673  1.0000
  H   H25       1.0  0.09304585494287165  0.8357591578824819  0.9687735040851084  1.0000
  Zn  Zn1       1.0  0.8069615502617165  0.5493508799785085  0.39986941885404437  1.0000
  Zn  Zn2       1.0  0.9716270227744153  0.5407072261698578  0.39715239799534285  1.0000
  C   C29       1.0  0.8901748955255531  0.5369461746784203  0.6620666501235031  1.0000
  C   C30       1.0  0.888415467066499  0.5531136554158751  0.13495528466081708  1.0000
  C   C31       1.0  0.8879665144661159  0.8084683470779344  0.39362358817289134  1.0000
  C   C32       1.0  0.890623800795861  0.28158975265896813  0.40339841880001304  1.0000
  O   O1        1.0  0.9510677762988476  0.5512787381919249  0.1876975181729561  1.0000
  O   O2        1.0  0.9524998738973833  0.5322196744228775  0.6072618416598277  1.0000
  O   O3        1.0  0.9507157407121469  0.7514772934101488  0.39049218866884017  1.0000
  O   O4        1.0  0.9528518528946405  0.3320211334302252  0.40446706392090603  1.0000
  O   O5        1.0  0.8257366639492145  0.7580369756694334  0.39255475384808136  1.0000
  O   O6        1.0  0.8275207882722495  0.5387810899908478  0.6093243355700853  1.0000
  O   O7        1.0  0.8260886853771707  0.5578401188940569  0.18975827686930158  1.0000
  O   O8        1.0  0.8278727623701306  0.338582502858078  0.40652793077988947  1.0000
