data_image0
_chemical_formula_structural       NC8NC6H8C6NCOH7C7F3H5Zn2C4O8
_chemical_formula_sum              "N3 C32 H20 O9 F3 Zn2"
_cell_length_a       17.457602349358154
_cell_length_b       10.299619329790078
_cell_length_c       9.272291681409872
_cell_angle_alpha    86.06619691581682
_cell_angle_beta     93.27365386630078
_cell_angle_gamma    91.71362633690529

_space_group_name_H-M_alt    "P 1"
_space_group_IT_number       1

loop_
  _space_group_symop_operation_xyz
  'x, y, z'

loop_
  _atom_site_type_symbol
  _atom_site_label
  _atom_site_symmetry_multiplicity
  _atom_site_fract_x
  _atom_site_fract_y
  _atom_site_fract_z
  _atom_site_occupancy
  N   N1        1.0  0.7169921726405232  0.4405792659905654  0.47494427248472704  1.0000
  C   C1        1.0  0.6558569698271922  0.39455902302232015  0.4631491864865682  1.0000
  C   C2        1.0  0.5798022364632097  0.3373156403643647  0.4484866965928256  1.0000
  C   C3        1.0  0.5216017798823571  0.3781463415813815  0.5316657365782536  1.0000
  C   C4        1.0  0.4469882997106246  0.32302671873586153  0.5176858711566392  1.0000
  C   C5        1.0  0.38521628720418355  0.3661400553586944  0.6057756114152384  1.0000
  C   C6        1.0  0.3104382210738857  0.38411075433167263  0.543853108943914  1.0000
  C   C7        1.0  0.2522381700141273  0.42475849275501343  0.6271520053335207  1.0000
  C   C8        1.0  0.176012720851706  0.44331527053770214  0.5627693299117589  1.0000
  N   N2        1.0  0.1147403751670405  0.4582285414903897  0.5110058257237193  1.0000
  C   C9        1.0  0.26832624260883636  0.44768321464439587  0.772938143970153  1.0000
  C   C10       1.0  0.34232135145937004  0.4301049646759305  0.8352911260698865  1.0000
  C   C11       1.0  0.4005117856736745  0.38964136771062763  0.7525005516904002  1.0000
  C   C12       1.0  0.4318576677776521  0.22638617959868657  0.41893562220047387  1.0000
  C   C13       1.0  0.490048176029381  0.18583773081531363  0.3362008224202977  1.0000
  C   C14       1.0  0.5638792514106872  0.24107463935562223  0.3507914196714903  1.0000
  H   H1        1.0  0.5342483202703009  0.45393591958295865  0.6056692241091006  1.0000
  H   H2        1.0  0.2976568124205604  0.368229612249823  0.4305534072050765  1.0000
  H   H3        1.0  0.22372288806593  0.4790913920158779  0.8382793068870951  1.0000
  H   H4        1.0  0.3545878835437335  0.44754044387742575  0.9481765405486906  1.0000
  H   H5        1.0  0.4571888028037914  0.3750610687960425  0.8036994286113879  1.0000
  H   H6        1.0  0.3753157475595632  0.18095528569547858  0.4071005105522396  1.0000
  H   H7        1.0  0.4779106651271368  0.11115392318967166  0.26086676096666195  1.0000
  H   H8        1.0  0.6084845836321939  0.20880132196161716  0.28601773731584124  1.0000
  C   C15       1.0  0.915768003546825  0.06803074613249649  0.49292860940952266  1.0000
  C   C16       1.0  0.8782348644357069  0.07339427782095287  0.35459597855440106  1.0000
  C   C17       1.0  0.860463920749444  0.9594112648142755  0.28399955284639566  1.0000
  C   C18       1.0  0.8784638513713339  0.8382468552901532  0.3547277224767851  1.0000
  C   C19       1.0  0.9159718955692648  0.8307674960179446  0.4930346529052678  1.0000
  C   C20       1.0  0.9346826861233734  0.9462744121094473  0.5611053097252854  1.0000
  N   N3        1.0  0.8209949890999895  0.9686590879141951  0.1433581127861734  1.0000
  C   C21       1.0  0.8326294087970127  0.8836037176872845  0.030977221674063582  1.0000
  O   O1        1.0  0.8865336915103051  0.8043189286106155  0.04192516132605628  1.0000
  H   H9        1.0  0.9858404841255519  0.2650885983695992  0.7545125836944944  1.0000
  H   H10       1.0  0.8631603178101923  0.1664114682616229  0.30038960774081636  1.0000
  H   H11       1.0  0.8618619912335234  0.7497240887328886  0.3033533068293419  1.0000
  H   H12       1.0  0.9636255568597543  0.9412645288779866  0.6677371136172467  1.0000
  H   H13       1.0  0.929343356155873  0.5003405407497393  0.5470499556417454  1.0000
  H   H14       1.0  0.7853809060835926  0.047496456036969725  0.11678011117332754  1.0000
  H   H15       1.0  0.7958336579589874  0.8900959881018639  0.9329695244862934  1.0000
  C   C22       1.0  0.9142536365196123  0.44599376622880893  0.06947398150371309  1.0000
  C   C23       1.0  0.96584838901068  0.3665499002493635  0.15436177888792546  1.0000
  C   C24       1.0  0.021616690862767518  0.2989283185422926  0.09061290851734793  1.0000
  C   C25       1.0  0.028023058143782142  0.3105348795428138  0.9403026966334114  1.0000
  C   C26       1.0  0.9748979145558929  0.3856083865448108  0.8541054562615664  1.0000
  C   C27       1.0  0.9174862783571341  0.45280447879093866  0.9164892123730799  1.0000
  C   C28       1.0  0.0869238773684411  0.23449656367269545  0.8710485405044603  1.0000
  F   F1        1.0  0.15118038631498054  0.21541968527507582  0.963790937829248  1.0000
  F   F2        1.0  0.10991267145719807  0.30050782149626976  0.7450678332433665  1.0000
  F   F3        1.0  0.05527167921400711  0.11474826829279872  0.8382061793727371  1.0000
  H   H16       1.0  0.8062461414641574  0.703631270020733  0.13980231135829935  1.0000
  H   H17       1.0  0.9640749537425404  0.3587176947698294  0.2712467894059569  1.0000
  H   H18       1.0  0.060262250258607875  0.23829487779097147  0.15932286712483945  1.0000
  H   H19       1.0  0.9770870025925376  0.3891696157819875  0.7373165327143218  1.0000
  H   H20       1.0  0.7435910493162746  0.5694980448102087  0.7873950815646928  1.0000
  Zn  Zn1       1.0  0.8317737429369589  0.4456690498671987  0.48535918429226443  1.0000
  Zn  Zn2       1.0  0.9999588328369573  0.4531282046105223  0.500602719786998  1.0000
  C   C29       1.0  0.9168721531270428  0.44634326542549996  0.7563843543079218  1.0000
  C   C30       1.0  0.9148622602011521  0.4524557102827813  0.22957785800867558  1.0000
  C   C31       1.0  0.915907494275036  0.6865476029516515  0.48726723322409127  1.0000
  C   C32       1.0  0.9158268615396352  0.21224981050886305  0.4986950505631169  1.0000
  O   O2        1.0  0.9788918834668392  0.4574494422819455  0.2890950230211087  1.0000
  O   O3        1.0  0.9804911197109968  0.44700987621136323  0.7084362647348872  1.0000
  O   O4        1.0  0.979711290814991  0.6409778904607517  0.49112220761553416  1.0000
  O   O5        1.0  0.9796716545624548  0.2634814339081004  0.5064089668062473  1.0000
  O   O6        1.0  0.8520608638181161  0.63531581802553  0.47955293206355853  1.0000
  O   O7        1.0  0.8528406928342999  0.44134936347981757  0.6968669125028444  1.0000
  O   O8        1.0  0.8512414500115212  0.4517888703540325  0.2775239368623583  1.0000
  O   O9        1.0  0.8520212215141816  0.2578208535605535  0.4948379887722554  1.0000
