data_image0
_chemical_formula_structural       NC8NC6H8C6BrH5C6NCOH7Zn2C4O8
_chemical_formula_sum              "N3 C31 H20 Br1 O9 Zn2"
_cell_length_a       17.457602349358154
_cell_length_b       10.302969083221269
_cell_length_c       10.29962270195845
_cell_angle_alpha    85.57966053933701
_cell_angle_beta     92.8939802036364
_cell_angle_gamma    91.68807063265206

_space_group_name_H-M_alt    "P 1"
_space_group_IT_number       1

loop_
  _space_group_symop_operation_xyz
  'x, y, z'

loop_
  _atom_site_type_symbol
  _atom_site_label
  _atom_site_symmetry_multiplicity
  _atom_site_fract_x
  _atom_site_fract_y
  _atom_site_fract_z
  _atom_site_occupancy
  N   N1        1.0  0.7221620238740489  0.45189685904800925  0.6265265026057123  1.0000
  C   C1        1.0  0.6610820582444051  0.40598294917491007  0.6159109440310859  1.0000
  C   C2        1.0  0.5850959997949147  0.34887176104544837  0.6027147309790812  1.0000
  C   C3        1.0  0.5265817109644154  0.38904591078879047  0.6776112711939921  1.0000
  C   C4        1.0  0.4520338529117793  0.33405250606329595  0.6650294866679536  1.0000
  C   C5        1.0  0.3899295143492267  0.3764705719866126  0.7443477633361697  1.0000
  C   C6        1.0  0.3153721743596975  0.3949141317298366  0.68858509600797  1.0000
  C   C7        1.0  0.2568579033541603  0.43490445215227935  0.7635895882898793  1.0000
  C   C8        1.0  0.1808619838794331  0.45395291946652994  0.7056114934785942  1.0000
  N   N2        1.0  0.1197741811579469  0.46926150961038715  0.6589972562965092  1.0000
  C   C9        1.0  0.272408906995498  0.4566944473625769  0.8948652577729188  1.0000
  C   C10       1.0  0.3461816171847828  0.43863987917249503  0.9510155173062871  1.0000
  C   C11       1.0  0.4046843709057247  0.3988297094086726  0.8764687393848845  1.0000
  C   C12       1.0  0.4372886551780398  0.23820726745396992  0.5761182640041012  1.0000
  C   C13       1.0  0.4957913024467588  0.19831184254275303  0.5016217210199414  1.0000
  C   C14       1.0  0.5695545001331954  0.2534177723420057  0.5147534470049118  1.0000
  H   H1        1.0  0.5389385083195823  0.4642383827228176  0.7442409655778164  1.0000
  H   H2        1.0  0.3030076398785164  0.3799142216245224  0.58656216245052  1.0000
  H   H3        1.0  0.22755919981948822  0.4875870909163833  0.9537001995963448  1.0000
  H   H4        1.0  0.3580323691843523  0.45519681835517756  0.05266519582232376  1.0000
  H   H5        1.0  0.461178812593782  0.38385834736376356  0.9225744952735249  1.0000
  H   H6        1.0  0.3808019606608122  0.19288282227868248  0.5654665890246651  1.0000
  H   H7        1.0  0.4839480854643511  0.12423506500528325  0.4337937234385414  1.0000
  H   H8        1.0  0.6144043490733159  0.2216558856737807  0.4564296224893194  1.0000
  C   C15       1.0  0.9209717630353454  0.07933181937896228  0.6427678321176413  1.0000
  C   C16       1.0  0.0005186551766118708  0.07989927812963238  0.6711501071498491  1.0000
  C   C17       1.0  0.03997819519558843  0.9632429175038584  0.6852290747996821  1.0000
  C   C18       1.0  0.0005187153692149948  0.8448169210785564  0.6711498656494339  1.0000
  C   C19       1.0  0.9209717748148109  0.8418168372224162  0.642767746983314  1.0000
  C   C20       1.0  0.8815824587860996  0.9596910799034017  0.6287137248787902  1.0000
  Br  Br1       1.0  0.14817566163043283  0.9656691144609034  0.7238342063038672  1.0000
  H   H9        1.0  0.8910310812349699  0.40641989960874203  0.6320844297020494  1.0000
  H   H10       1.0  0.03218476880945209  0.1706086661376598  0.6824486970959662  1.0000
  H   H11       1.0  0.032184858976961994  0.7555277357445243  0.682448119474486  1.0000
  H   H12       1.0  0.8202328363440076  0.9583153392467119  0.6068243964172453  1.0000
  H   H13       1.0  0.8910308618809967  0.5133858984446468  0.6320863307856757  1.0000
  C   C21       1.0  0.9208987625660346  0.4604445866264886  0.26140504722580404  1.0000
  C   C22       1.0  0.8405075792480023  0.4669491427148367  0.2527464111437858  1.0000
  C   C23       1.0  0.8001476390661193  0.47235811250887694  0.1314331783416287  1.0000
  C   C24       1.0  0.8406772214979916  0.4672348166799549  0.017588072317370917  1.0000
  C   C25       1.0  0.9210447753001991  0.4607040825258404  0.024130497100644632  1.0000
  C   C26       1.0  0.9607200139694693  0.45786793427551764  0.14650712986719072  1.0000
  N   N3        1.0  0.7177837831754346  0.4769941151034043  0.12658961918456257  1.0000
  C   C27       1.0  0.6727738283172026  0.5458893281666457  0.024840379192372142  1.0000
  O   O1        1.0  0.7036798313657624  0.6222849631744356  0.9402543412990201  1.0000
  H   H14       1.0  0.0724821485251308  0.4467827062026304  0.48509207459389625  1.0000
  H   H15       1.0  0.8088290631072556  0.46894396628723256  0.34031506592294125  1.0000
  H   H16       1.0  0.8095382489838313  0.4656298376640675  0.9241929006084089  1.0000
  H   H17       1.0  0.022693730849304705  0.4528704781415349  0.15230465446222285  1.0000
  H   H18       1.0  0.9518166437098693  0.4562249583210607  0.6993407320387863  1.0000
  H   H19       1.0  0.6886515394827648  0.4353553704885176  0.2063078715385651  1.0000
  H   H20       1.0  0.6109003471011997  0.5350900140983215  0.022682354136939864  1.0000
  Zn  Zn1       1.0  0.8369043050385361  0.45690444306057865  0.6359043590615896  1.0000
  Zn  Zn2       1.0  0.0050318877787818295  0.4642432847850382  0.6496300321971922  1.0000
  C   C28       1.0  0.9210154638219705  0.4554829291568825  0.8799589511321171  1.0000
  C   C29       1.0  0.9209225649677523  0.4656665169699581  0.4055757174748149  1.0000
  C   C30       1.0  0.9209668336888976  0.6976890185916296  0.6375923599797111  1.0000
  C   C31       1.0  0.9209711377438602  0.22345886524867242  0.6479423731812735  1.0000
  O   O2        1.0  0.9847340947167721  0.47019843274614237  0.4591695328492986  1.0000
  O   O3        1.0  0.9848088790937592  0.4565200449025233  0.8367822302372068  1.0000
  O   O4        1.0  0.9847687498025425  0.6521044881507436  0.64106942287924  1.0000
  O   O5        1.0  0.9847741666187931  0.274613996247808  0.6548822381505293  1.0000
  O   O6        1.0  0.8571619688248308  0.6465337290948334  0.6306521484175229  1.0000
  O   O7        1.0  0.857202098099318  0.45095084563017607  0.8263648865307074  1.0000
  O   O8        1.0  0.8571273134744525  0.4646291877032418  0.44875062777153607  1.0000
  O   O9        1.0  0.8571673853919756  0.2690447419520461  0.644463430438774  1.0000
