data_image0
_chemical_formula_structural       NC9NC5H8C9H8C7OH6Zn2C4O8
_chemical_formula_sum              "N2 C34 H22 O9 Zn2"
_cell_length_a       17.807436237873137
_cell_length_b       9.275152443626249
_cell_length_c       9.274081674992354
_cell_angle_alpha    85.87685954028238
_cell_angle_beta     89.07685020002326
_cell_angle_gamma    88.96355956710404

_space_group_name_H-M_alt    "P 1"
_space_group_IT_number       1

loop_
  _space_group_symop_operation_xyz
  'x, y, z'

loop_
  _atom_site_type_symbol
  _atom_site_label
  _atom_site_symmetry_multiplicity
  _atom_site_fract_x
  _atom_site_fract_y
  _atom_site_fract_z
  _atom_site_occupancy
  N   N1        1.0  0.7202111321847318  0.5265240422779827  0.39311210106521277  1.0000
  C   C1        1.0  0.6594548387855127  0.48733553244918104  0.3810152553171331  1.0000
  C   C2        1.0  0.5838806875705272  0.438589341714692  0.3659680924538382  1.0000
  C   C3        1.0  0.5657171869738504  0.3582260051869801  0.24970758964094641  1.0000
  C   C4        1.0  0.4923382130285884  0.3107725616034891  0.23500649251419703  1.0000
  C   C5        1.0  0.4360719297777068  0.3432628894787799  0.3365313661684406  1.0000
  C   C6        1.0  0.3580893964815885  0.2929605402498967  0.32099854855754084  1.0000
  C   C7        1.0  0.2963040613480624  0.3840103642760977  0.34946613411173577  1.0000
  C   C8        1.0  0.2227815558875107  0.33633158953344267  0.3347810205405999  1.0000
  C   C9        1.0  0.1599606065058465  0.4303737661062399  0.36364190667381946  1.0000
  N   N2        1.0  0.1094655198646236  0.5059771808789602  0.38684527579609296  1.0000
  C   C10       1.0  0.2104594219647859  0.19731625445871037  0.29160120123391886  1.0000
  C   C11       1.0  0.2713873340971732  0.10625096319904959  0.26312435855619865  1.0000
  C   C12       1.0  0.3447887737480426  0.1534895674222554  0.27758622956514256  1.0000
  C   C13       1.0  0.45492899513270163  0.42417741851988655  0.4530332441407834  1.0000
  C   C14       1.0  0.5283602414983295  0.47141786438250044  0.46756233539297076  1.0000
  H   H1        1.0  0.6082159011158242  0.33253372260620995  0.17020284410919273  1.0000
  H   H2        1.0  0.4793845338166641  0.250323694171974  0.14318521042250043  1.0000
  H   H3        1.0  0.3052743680444708  0.4925339562983282  0.3811328810335517  1.0000
  H   H4        1.0  0.1538309455514647  0.15941320892173416  0.2799760016409041  1.0000
  H   H5        1.0  0.2617273848544914  0.9986259705577315  0.2301220602842322  1.0000
  H   H6        1.0  0.3911092423688246  0.08028921551311385  0.25670335122247856  1.0000
  H   H7        1.0  0.413139787280396  0.4492841498788023  0.533976861233108  1.0000
  H   H8        1.0  0.5418527839684436  0.5332116624723717  0.5582227232798154  1.0000
  C   C15       1.0  0.912621870789515  0.09274847946480103  0.39148590838524355  1.0000
  C   C16       1.0  0.8858875725949333  0.17580502714819346  0.26946610895515755  1.0000
  C   C17       1.0  0.8661418268266567  0.11029145485699132  0.14504122438956157  1.0000
  C   C18       1.0  0.8728218409657639  0.960554360820539  0.14017123631920492  1.0000
  C   C19       1.0  0.8980904288156488  0.8758777880242772  0.2611797699807201  1.0000
  C   C20       1.0  0.917061865908964  0.9397414497178782  0.3884838681455993  1.0000
  C   C21       1.0  0.8528532301414791  0.8933047542615303  0.011313725795237373  1.0000
  C   C22       1.0  0.8361342140548889  0.8369655013379297  0.9034157389668867  1.0000
  C   C23       1.0  0.8158489999006733  0.7685957632070036  0.7725004490114777  1.0000
  H   H9        1.0  0.019699626812247573  0.1713196473578542  0.67761747852671  1.0000
  H   H10       1.0  0.881932355982393  0.2925272388390241  0.26907640379254927  1.0000
  H   H11       1.0  0.8463353256489126  0.17674268158971906  0.052010622235706405  1.0000
  H   H12       1.0  0.9012646576398381  0.7593642821316546  0.25710781871937893  1.0000
  H   H13       1.0  0.9867372502637894  0.6425232734304785  0.584245605019063  1.0000
  H   H14       1.0  0.8295401789458942  0.6512715495829449  0.7857453888958492  1.0000
  H   H15       1.0  0.7547744118225509  0.7842258606734341  0.753751670320038  1.0000
  H   H16       1.0  0.8478434721738887  0.8184219105643825  0.6786885111215364  1.0000
  C   C24       1.0  0.9160896366687754  0.5123975317272995  0.9667081696739097  1.0000
  C   C25       1.0  0.9774189485553513  0.5719419765219895  0.03402971889501405  1.0000
  C   C26       1.0  0.034550587094078766  0.642350178319558  0.9523730083798174  1.0000
  C   C27       1.0  0.03033972869691337  0.6536058430046254  0.8012799351397528  1.0000
  C   C28       1.0  0.9705800261324941  0.5931560237585507  0.732733133864373  1.0000
  C   C29       1.0  0.9135940982308186  0.5200923514712685  0.8132616002807942  1.0000
  C   C30       1.0  0.09764627962576555  0.7046730534490335  0.02657503701813968  1.0000
  O   O1        1.0  0.14968882565333286  0.7691352194858758  0.9561649805318675  1.0000
  H   H17       1.0  0.7376378375793073  0.42810850743989737  0.08127406984872088  1.0000
  H   H18       1.0  0.9798726667654274  0.5664577001337325  0.15104807422660205  1.0000
  H   H19       1.0  0.07364197928513039  0.7079766816777426  0.7357789570515205  1.0000
  H   H20       1.0  0.9699224126932066  0.6006440873485144  0.6156441810341269  1.0000
  H   H21       1.0  0.7946034335736046  0.45735498605682334  0.5403316633780784  1.0000
  H   H22       1.0  0.09978788964447127  0.6953891427354804  0.1434794690853125  1.0000
  Zn  Zn1       1.0  0.8325414941725462  0.5205908895610294  0.3913119804397722  1.0000
  Zn  Zn2       1.0  0.9971350431234418  0.5118986855867167  0.38865728792964105  1.0000
  C   C31       1.0  0.9140340111954134  0.5128927046610667  0.6532652994216601  1.0000
  C   C32       1.0  0.9156443325786908  0.5195985965059675  0.12670407498265512  1.0000
  C   C33       1.0  0.9162356735250343  0.7795897159601806  0.3833075489707456  1.0000
  C   C34       1.0  0.913442604775431  0.25289985618881117  0.3966619093277082  1.0000
  O   O2        1.0  0.9779572455171339  0.5187104018352942  0.17939274271203454  1.0000
  O   O3        1.0  0.9766437889952213  0.5071826259067707  0.5985613704313795  1.0000
  O   O4        1.0  0.978420812729056  0.7225438934654118  0.3805685852125542  1.0000
  O   O5        1.0  0.9761801659913432  0.3033491465769478  0.3973854207251972  1.0000
  O   O6        1.0  0.8534963151369749  0.7291404315385221  0.38258384854254457  1.0000
  O   O7        1.0  0.8517193007091095  0.5137808959656458  0.6005765507655603  1.0000
  O   O8        1.0  0.8530327621261585  0.52530860588366  0.18140619024383242  1.0000
  O   O9        1.0  0.8512556822246544  0.3099473412927425  0.3993989763609871  1.0000
