data_image0
_chemical_formula_structural       NC9NC5H8C6FH5C6BrH5Zn2C4O8
_chemical_formula_sum              "N2 C30 H18 F1 Br1 Zn2 O8"
_cell_length_a       17.807436237873137
_cell_length_b       9.275642734913903
_cell_length_c       10.302972455390005
_cell_angle_alpha    85.47816218969515
_cell_angle_beta     89.39215201277248
_cell_angle_gamma    88.99238798493903

_space_group_name_H-M_alt    "P 1"
_space_group_IT_number       1

loop_
  _space_group_symop_operation_xyz
  'x, y, z'

loop_
  _atom_site_type_symbol
  _atom_site_label
  _atom_site_symmetry_multiplicity
  _atom_site_fract_x
  _atom_site_fract_y
  _atom_site_fract_z
  _atom_site_occupancy
  N   N1        1.0  0.7158632299388981  0.5407881792783602  0.5554720840394303  1.0000
  C   C1        1.0  0.6550614091032126  0.5017182915974883  0.5445059066205284  1.0000
  C   C2        1.0  0.579430626715211  0.45311965392370834  0.5308651725225997  1.0000
  C   C3        1.0  0.5609043735065882  0.37383066505039464  0.4260067735760822  1.0000
  C   C4        1.0  0.4874701141714401  0.32652134292551005  0.4126800693549748  1.0000
  C   C5        1.0  0.4315110904906523  0.35808185146906335  0.5041799035743149  1.0000
  C   C6        1.0  0.353470102551836  0.30793181384670265  0.4900989389192183  1.0000
  C   C7        1.0  0.2917916113309178  0.39870274369804526  0.5159035957903824  1.0000
  C   C8        1.0  0.21821381067020731  0.3511679951368998  0.5025908803368853  1.0000
  C   C9        1.0  0.1555016192419788  0.44492703974088665  0.5287551822011214  1.0000
  N   N2        1.0  0.1050939700479866  0.520302824969751  0.5497905636346585  1.0000
  C   C10       1.0  0.2057293853523717  0.2125758904678785  0.46344856325718187  1.0000
  C   C11       1.0  0.2665504223987374  0.12178958093811487  0.4376355407535901  1.0000
  C   C12       1.0  0.3400063885208773  0.16888628533237737  0.450746391236271  1.0000
  C   C13       1.0  0.45073175862980064  0.4379197170994018  0.6092566997595723  1.0000
  C   C14       1.0  0.5242177299387171  0.48501765185652124  0.6224280972939109  1.0000
  H   H1        1.0  0.6031624079667304  0.3488665848425605  0.3543522474821075  1.0000
  H   H2        1.0  0.4742306996932543  0.26692031354638823  0.3298695054353633  1.0000
  H   H3        1.0  0.3008825973567999  0.5069144935975569  0.5446212447653496  1.0000
  H   H4        1.0  0.14905709536237  0.17478689587213636  0.45290950993983303  1.0000
  H   H5        1.0  0.2567660866457668  0.014488368031429166  0.40771661555587557  1.0000
  H   H6        1.0  0.3862468617699258  0.09589194240726684  0.431805365520576  1.0000
  H   H7        1.0  0.4091873210240735  0.46228530011615687  0.6822061259952921  1.0000
  H   H8        1.0  0.5379929276632136  0.5459738633099742  0.704195501331496  1.0000
  C   C15       1.0  0.9081596576284768  0.10712359831057405  0.5532234252882444  1.0000
  C   C16       1.0  0.8936222491372833  0.19120155540897632  0.43615190922017066  1.0000
  C   C17       1.0  0.8861694614706557  0.12631676941693892  0.31937746895681474  1.0000
  C   C18       1.0  0.8931979057406488  0.9766560981972247  0.3176096472281902  1.0000
  C   C19       1.0  0.9063778757871249  0.8910600951578476  0.4328848578909439  1.0000
  C   C20       1.0  0.9128046718341384  0.9539559621329079  0.5520503852765439  1.0000
  F   F1        1.0  0.8729863299500807  0.20911005967366947  0.20727248501242435  1.0000
  H   H9        1.0  0.9857700204748386  0.18218476795233451  0.8420774960978274  1.0000
  H   H10       1.0  0.889787449070107  0.30802876090821396  0.43454635136960795  1.0000
  H   H11       1.0  0.8877141181020338  0.9264833644171103  0.2268923314496023  1.0000
  H   H12       1.0  0.9097696171796317  0.7747216616545081  0.4292672827983157  1.0000
  H   H13       1.0  0.9620569373874203  0.6539395667317877  0.7482199699948762  1.0000
  C   C21       1.0  0.9104821327179924  0.5305397737742252  0.17139436321626378  1.0000
  C   C22       1.0  0.9315791017518886  0.38349921769803963  0.18022787709212063  1.0000
  C   C23       1.0  0.9420443785073738  0.3105591607708813  0.06767194109455898  1.0000
  C   C24       1.0  0.9315792280286158  0.3834991547576787  0.9451454847210243  1.0000
  C   C25       1.0  0.9104821682741809  0.5305397758499619  0.9338794447666072  1.0000
  C   C26       1.0  0.9000355228315621  0.6033499617802955  0.04766055484977749  1.0000
  Br  Br1       1.0  0.9707397363406877  0.11055859790466038  0.08134143699601615  1.0000
  H   H14       1.0  0.9025417355368301  0.5858846965753084  0.4953710515299292  1.0000
  H   H15       1.0  0.9399773070431697  0.32496506895219057  0.27422781206747837  1.0000
  H   H16       1.0  0.9399776040796833  0.3249651016367061  0.8591469050393492  1.0000
  H   H17       1.0  0.8837646926108695  0.716753279135161  0.039909754085281746  1.0000
  H   H18       1.0  0.9025406770271582  0.5858842107204485  0.6023374437006304  1.0000
  Zn  Zn1       1.0  0.8281867913916259  0.5348727011366072  0.5538400336112785  1.0000
  Zn  Zn2       1.0  0.9927703259291457  0.526206549620815  0.55143330341794  1.0000
  C   C27       1.0  0.9104489864878282  0.5247957066076072  0.7897614347546276  1.0000
  C   C28       1.0  0.9105099380591908  0.5362852688227038  0.31551200089730513  1.0000
  C   C29       1.0  0.9119227851875694  0.7938868269589128  0.5470987284181041  1.0000
  C   C30       1.0  0.9090360736963861  0.26719241907442814  0.5581747796704031  1.0000
  O   O1        1.0  0.9729778289041416  0.5349184596187544  0.36296586378186646  1.0000
  O   O2        1.0  0.9728961841865806  0.5195840195775525  0.7404805471258498  1.0000
  O   O3        1.0  0.9740854533037158  0.7368785467170038  0.544528705115906  1.0000
  O   O4        1.0  0.9717885036823661  0.31762394575110786  0.5589176092563728  1.0000
  O   O5        1.0  0.8491685574741311  0.7434553079652162  0.546355728587314  1.0000
  O   O6        1.0  0.8479792978557851  0.5261625131816354  0.7423074989751512  1.0000
  O   O7        1.0  0.848060942347594  0.541496902973917  0.3647912548167114  1.0000
  O   O8        1.0  0.8468716170661844  0.324202378793367  0.5607430976411232  1.0000
