data_image0
_chemical_formula_structural       NC8NC6H8C9H8C6NCOH7Zn2C4O8
_chemical_formula_sum              "N3 C34 H23 O9 Zn2"
_cell_length_a       17.457602349358154
_cell_length_b       9.275152443626249
_cell_length_c       10.29962270195845
_cell_angle_alpha    85.38201048137523
_cell_angle_beta     92.8939802036364
_cell_angle_gamma    92.27213218982278

_space_group_name_H-M_alt    "P 1"
_space_group_IT_number       1

loop_
  _space_group_symop_operation_xyz
  'x, y, z'

loop_
  _atom_site_type_symbol
  _atom_site_label
  _atom_site_symmetry_multiplicity
  _atom_site_fract_x
  _atom_site_fract_y
  _atom_site_fract_z
  _atom_site_occupancy
  N   N1        1.0  0.7307824547620914  0.6137263971983433  0.6222015427683205  1.0000
  C   C1        1.0  0.6694298818295291  0.5626948876947089  0.6117227541129497  1.0000
  C   C2        1.0  0.5931047338316761  0.4992180427070403  0.5986966658142194  1.0000
  C   C3        1.0  0.5348289732955183  0.5438700340119449  0.673473533902933  1.0000
  C   C4        1.0  0.45995459973196257  0.4827470221917176  0.6610555656048016  1.0000
  C   C5        1.0  0.3981021123965944  0.5298930382960836  0.7402474858928414  1.0000
  C   C6        1.0  0.3236542784171548  0.550392331362576  0.6844298782604112  1.0000
  C   C7        1.0  0.2653774442455386  0.5948400035893961  0.7593152460131682  1.0000
  C   C8        1.0  0.1894946223334809  0.6160116276890113  0.7012804089783675  1.0000
  N   N2        1.0  0.1284977121864266  0.6330265250386964  0.6546205700463186  1.0000
  C   C9        1.0  0.2810578228811059  0.6190587283883042  0.8905260067159773  1.0000
  C   C10       1.0  0.3547233366422655  0.5989917841719932  0.9467300478122831  1.0000
  C   C11       1.0  0.4129897231481732  0.5547443423344585  0.8723018577811115  1.0000
  C   C12       1.0  0.44464033453986285  0.37621879973171635  0.5724298500036629  1.0000
  C   C13       1.0  0.5029061084032481  0.33187660014262943  0.4980521488706733  1.0000
  C   C14       1.0  0.5769964897022088  0.39312467916769234  0.5110197234342126  1.0000
  H   H1        1.0  0.5476322152473303  0.6274435165733003  0.7398792423891625  1.0000
  H   H2        1.0  0.3112006841053225  0.5337205197654225  0.5824516269463078  1.0000
  H   H3        1.0  0.23639153637788352  0.6533946897008074  0.9492689244801122  1.0000
  H   H4        1.0  0.36667239311095234  0.6173941725024028  0.048330405953701305  1.0000
  H   H5        1.0  0.46939527450562357  0.5381042607864315  0.9184522108731634  1.0000
  H   H6        1.0  0.3878845325824355  0.32584245711348925  0.5619131890259541  1.0000
  H   H7        1.0  0.4906230711008285  0.24954316813149835  0.4304448137183814  1.0000
  H   H8        1.0  0.6216577569623076  0.35782258823614743  0.4527905123089202  1.0000
  C   C15       1.0  0.9273801420439772  0.19963497228720994  0.6395526817156401  1.0000
  C   C16       1.0  0.8996745674728197  0.2809892036185646  0.5269660671578396  1.0000
  C   C17       1.0  0.8791021441457544  0.21450808082510786  0.41289527830198414  1.0000
  C   C18       1.0  0.8859121806565543  0.06549503270628265  0.4091594005329593  1.0000
  C   C19       1.0  0.9121168885502772  0.982379477480073  0.5206912580949314  1.0000
  C   C20       1.0  0.9319073073895414  0.04710720885041675  0.6372812572048407  1.0000
  C   C21       1.0  0.8650979124470715  0.9972925365963085  0.2910718472796203  1.0000
  C   C22       1.0  0.8476708248988533  0.9401555482424571  0.19219216655490423  1.0000
  C   C23       1.0  0.8265264984604939  0.870817936940967  0.07221904715814365  1.0000
  H   H9        1.0  0.037702577602179765  0.2867357339977261  0.9079046160324187  1.0000
  H   H10       1.0  0.895631935198579  0.39731036040561163  0.5262280400432868  1.0000
  H   H11       1.0  0.8585676768458068  0.27972034183897154  0.3271131067576234  1.0000
  H   H12       1.0  0.915347300661547  0.86622487506385  0.517331775178798  1.0000
  H   H13       1.0  0.0037245151351683603  0.7553583349648793  0.8205282925054336  1.0000
  H   H14       1.0  0.8405581765920911  0.754781503381416  0.08549517014764274  1.0000
  H   H15       1.0  0.7640615123428952  0.8803626805168676  0.04934865763194929  1.0000
  H   H16       1.0  0.8589191236632406  0.9247073999681187  0.990798550943575  1.0000
  C   C24       1.0  0.9295699443695992  0.6232268610525709  0.25705462512623645  1.0000
  C   C25       1.0  0.8492173809272608  0.6304564199543699  0.24837661305089842  1.0000
  C   C26       1.0  0.8088895557334325  0.6364682776727031  0.12704726782520703  1.0000
  C   C27       1.0  0.8493887193257456  0.6307739353588773  0.013217423249141325  1.0000
  C   C28       1.0  0.9297174978237205  0.6235152805640114  0.019779302005849875  1.0000
  C   C29       1.0  0.9693758972665485  0.6203630130531403  0.14216438318744595  1.0000
  N   N3        1.0  0.726553225448106  0.641621012674261  0.12218989878564024  1.0000
  C   C30       1.0  0.6819523261085407  0.7181953390583369  0.02023543138515893  1.0000
  O   O1        1.0  0.7133119173631971  0.8031060901730092  0.9354218235710503  1.0000
  H   H17       1.0  0.08107221485877703  0.6080422169520228  0.4807823489692662  1.0000
  H   H18       1.0  0.8175507087674638  0.6326735880930483  0.3359393255816219  1.0000
  H   H19       1.0  0.8182402174771858  0.6289900641501573  0.9198270325063627  1.0000
  H   H20       1.0  0.031319942462096906  0.6148085366232257  0.1479767943750998  1.0000
  H   H21       1.0  0.9604627720711365  0.618536909737917  0.6950028795117991  1.0000
  H   H22       1.0  0.6971737576375654  0.5953411816294434  0.20203218605094952  1.0000
  H   H23       1.0  0.6200147255028  0.7061923251561533  0.018109575694462032  1.0000
  Zn  Zn1       1.0  0.8455544677437029  0.6192921303679639  0.631564482462307  1.0000
  Zn  Zn2       1.0  0.013725623811826182  0.6274489650231381  0.6452682944061083  1.0000
  C   C31       1.0  0.9296571864907207  0.6177121734336377  0.875623308986889  1.0000
  C   C32       1.0  0.9296247512392631  0.6290308317596318  0.40120974011120203  1.0000
  C   C33       1.0  0.9310466205297852  0.8869147394749419  0.6325352260820567  1.0000
  C   C34       1.0  0.9282352505673804  0.35982652929813197  0.6442978922238793  1.0000
  O   O2        1.0  0.9934631885929767  0.6340678783461937  0.45479005566054553  1.0000
  O   O3        1.0  0.993456759489591  0.6188648868962101  0.8324434986962559  1.0000
  O   O4        1.0  0.9945778849839951  0.8362493222878138  0.6361480777341646  1.0000
  O   O5        1.0  0.9923420057494532  0.41668345045682353  0.6510853745457938  1.0000
  O   O6        1.0  0.8669380284175208  0.8300576421523191  0.625747397639348  1.0000
  O   O7        1.0  0.8658169121673801  0.6126749403989518  0.8220427447103205  1.0000
  O   O8        1.0  0.8658233407511311  0.6278778809767611  0.4443877404396901  1.0000
  O   O9        1.0  0.864702157868172  0.4104934428031981  0.6406831567185081  1.0000
