data_image0
_chemical_formula_structural       NC8NC6H8C6OCH8C6NCH9Zn2C4O8
_chemical_formula_sum              "N3 C32 H25 O9 Zn2"
_cell_length_a       17.457602349358154
_cell_length_b       9.273888216677433
_cell_length_c       9.273390368590327
_cell_angle_alpha    86.36751786552817
_cell_angle_beta     92.8511133753594
_cell_angle_gamma    91.10627454168798

_space_group_name_H-M_alt    "P 1"
_space_group_IT_number       1

loop_
  _space_group_symop_operation_xyz
  'x, y, z'

loop_
  _atom_site_type_symbol
  _atom_site_label
  _atom_site_symmetry_multiplicity
  _atom_site_fract_x
  _atom_site_fract_y
  _atom_site_fract_z
  _atom_site_occupancy
  N   N1        1.0  0.7140590901017301  0.5966312825462687  0.4805027570964042  1.0000
  C   C1        1.0  0.6532540333233162  0.5455238717886608  0.468567604666019  1.0000
  C   C2        1.0  0.5776099244228027  0.48195270885347696  0.4537308841358998  1.0000
  C   C3        1.0  0.5188324350198161  0.5274194610406315  0.5369891318992273  1.0000
  C   C4        1.0  0.4446138032237681  0.4662070555651039  0.5228414139703008  1.0000
  C   C5        1.0  0.3822314807548267  0.5142160601929031  0.6110146286122049  1.0000
  C   C6        1.0  0.307584441174332  0.5340611547778897  0.5491880518322838  1.0000
  C   C7        1.0  0.24880801831055097  0.5793250001305694  0.6325654957954701  1.0000
  C   C8        1.0  0.1727195907931685  0.5998165605297403  0.568282147607222  1.0000
  N   N2        1.0  0.11155744922962241  0.6162846946632741  0.5165984819852312  1.0000
  C   C9        1.0  0.2641849571242195  0.6050196574118365  0.7783346995062228  1.0000
  C   C10       1.0  0.3380449350249178  0.5856109498849036  0.8405927459168874  1.0000
  C   C11       1.0  0.3968086182630303  0.5405523784855704  0.7577238986349937  1.0000
  C   C12       1.0  0.430465530696941  0.3587590013399282  0.4238428805880219  1.0000
  C   C13       1.0  0.4892295937900034  0.31360632908503594  0.3410295016081568  1.0000
  C   C14       1.0  0.5626627105344707  0.37494996385350876  0.3557879484698039  1.0000
  H   H1        1.0  0.5307220113568771  0.6116789487379444  0.6111894668146667  1.0000
  H   H2        1.0  0.2953437554225121  0.516240395488295  0.4359077083806475  1.0000
  H   H3        1.0  0.21913242817997944  0.6399963092944627  0.8437359501437072  1.0000
  H   H4        1.0  0.3497627688422324  0.6051564961721101  0.9534640365055456  1.0000
  H   H5        1.0  0.4533755821819121  0.5244529283763262  0.8088443532300509  1.0000
  H   H6        1.0  0.37425027516144216  0.3083057654242629  0.4118696146586309  1.0000
  H   H7        1.0  0.47784742055663937  0.23057212573050867  0.26550295852625005  1.0000
  H   H8        1.0  0.6077203398945794  0.3390138677479799  0.290951056157706  1.0000
  C   C15       1.0  0.9150641986731408  0.18309174997752975  0.4972828901026345  1.0000
  C   C16       1.0  0.8971716179569734  0.2641020692344287  0.3669189247278508  1.0000
  C   C17       1.0  0.8727531588925121  0.19686238988782634  0.24161705487376084  1.0000
  C   C18       1.0  0.8660854987809232  0.04560699968213866  0.2462034097911392  1.0000
  C   C19       1.0  0.8847810863273512  0.963411822495536  0.373867798773837  1.0000
  C   C20       1.0  0.9105597108423505  0.02981359364163061  0.49983144840406846  1.0000
  O   O1        1.0  0.8553248445172213  0.28410778636112144  0.11553270102918112  1.0000
  C   C21       1.0  0.8297446698940674  0.23050916035806202  0.9805687234163396  1.0000
  H   H9        1.0  0.9212612036298164  0.26385120068103163  0.8525381106399925  1.0000
  H   H10       1.0  0.9004116336700265  0.381092443241829  0.36294095055232867  1.0000
  H   H11       1.0  0.8471671047216187  0.9902442683614456  0.15126773450912867  1.0000
  H   H12       1.0  0.880795557836552  0.8467412496787995  0.37302594511316833  1.0000
  H   H13       1.0  0.9179475782708169  0.7337758219378332  0.7384027036313563  1.0000
  H   H14       1.0  0.7747028169371165  0.16984021478415467  0.9921817227251939  1.0000
  H   H15       1.0  0.8737852090250455  0.15961915585831  0.941349249134801  1.0000
  H   H16       1.0  0.8204276767547776  0.3228872743920035  0.9000360180926297  1.0000
  C   C22       1.0  0.912871430581655  0.6019586326550204  0.07530109208275992  1.0000
  C   C23       1.0  0.983332342800639  0.6025770866940177  0.1552919347697732  1.0000
  C   C24       1.0  0.052493226203324195  0.6165368565064637  0.08619426451699264  1.0000
  C   C25       1.0  0.05294975863386675  0.6303556957598362  0.9346559098321827  1.0000
  C   C26       1.0  0.982969285139441  0.6273290102310594  0.8538905998285782  1.0000
  C   C27       1.0  0.9127525139907923  0.6109467409221423  0.921813235706944  1.0000
  N   N3        1.0  0.12339817257746777  0.6460395396785399  0.8603074718880803  1.0000
  C   C28       1.0  0.19912685934426855  0.6499537322106936  0.9341729781533168  1.0000
  H   H17       1.0  0.792177250283547  0.5267203193277026  0.3499392805595727  1.0000
  H   H18       1.0  0.984961843045611  0.595696669579908  0.27246371880731224  1.0000
  H   H19       1.0  0.10534659834933446  0.6178231061699306  0.1521101052824032  1.0000
  H   H20       1.0  0.9835024250055985  0.6344611361684378  0.7368361938729104  1.0000
  H   H21       1.0  0.7345998264545404  0.4901040524968052  0.8097533617175543  1.0000
  H   H22       1.0  0.12085869143795436  0.6554712590775718  0.7472344097900576  1.0000
  H   H23       1.0  0.20361269025629647  0.74268314081537  0.004371901464538253  1.0000
  H   H24       1.0  0.20903096007571764  0.5473612764876672  0.0002663117244716684  1.0000
  H   H25       1.0  0.24401788263517088  0.6630751718134063  0.8533969126115255  1.0000
  Zn  Zn1       1.0  0.8287685495398502  0.6022990548792218  0.49092751400485657  1.0000
  Zn  Zn2       1.0  0.9968480367668698  0.6106052272322646  0.5061854898358265  1.0000
  C   C29       1.0  0.9128038192133157  0.6035042681966911  0.7617868778157608  1.0000
  C   C30       1.0  0.9128145928190446  0.6094019251895455  0.2353264395833401  1.0000
  C   C31       1.0  0.9114080276662575  0.8697039638469644  0.4936057756823762  1.0000
  C   C32       1.0  0.9142103362162639  0.34320049539283604  0.5035076081400625  1.0000
  O   O2        1.0  0.9765808404561225  0.6150458216086963  0.2948227114330473  1.0000
  O   O3        1.0  0.9766060191312247  0.6041634723837264  0.7138706383956863  1.0000
  O   O4        1.0  0.9754780397380036  0.8191230665963256  0.4973124274517793  1.0000
  O   O5        1.0  0.9777087624555183  0.40008623372759344  0.5113808091317948  1.0000
  O   O6        1.0  0.8479077664939146  0.8128180455508931  0.485732189494513  1.0000
  O   O7        1.0  0.8490357366796876  0.59786018265173  0.7022903288007076  1.0000
  O   O8        1.0  0.8490105585663392  0.6087424632400258  0.28324066879637444  1.0000
  O   O9        1.0  0.8501384806022731  0.39378286619442604  0.49979887452590677  1.0000
