data_image0
_chemical_formula_structural       NC8NC6H8C7F3H5C8H10Zn2C4O8
_chemical_formula_sum              "N2 C33 H23 F3 Zn2 O8"
_cell_length_a       17.457602349358154
_cell_length_b       9.27228830945605
_cell_length_c       9.275657083861812
_cell_angle_alpha    85.55061255966405
_cell_angle_beta     92.37146316173272
_cell_angle_gamma    91.12935064675003

_space_group_name_H-M_alt    "P 1"
_space_group_IT_number       1

loop_
  _space_group_symop_operation_xyz
  'x, y, z'

loop_
  _atom_site_type_symbol
  _atom_site_label
  _atom_site_symmetry_multiplicity
  _atom_site_fract_x
  _atom_site_fract_y
  _atom_site_fract_z
  _atom_site_occupancy
  N   N1        1.0  0.7209446759442061  0.6066104803435048  0.4668860721152306  1.0000
  C   C1        1.0  0.6601918659445748  0.5555297303484352  0.4553990841223825  1.0000
  C   C2        1.0  0.5846127044700097  0.4919916780325988  0.4411198216907892  1.0000
  C   C3        1.0  0.525461768889958  0.5370196773745188  0.5239646171030561  1.0000
  C   C4        1.0  0.45130505129629533  0.4758383626600782  0.5103536451080322  1.0000
  C   C5        1.0  0.3885272329870914  0.5233825984248492  0.5980902366800023  1.0000
  C   C6        1.0  0.3141590574840381  0.5435970691639607  0.5361031332732529  1.0000
  C   C7        1.0  0.2550086460651742  0.5884213157495453  0.619068870361501  1.0000
  C   C8        1.0  0.1792101596039945  0.609296814534598  0.5546198562025624  1.0000
  N   N2        1.0  0.1182811297866402  0.6260736285406039  0.502803056863403  1.0000
  C   C9        1.0  0.26973019623219135  0.6133039931161441  0.7645843726922636  1.0000
  C   C10       1.0  0.3433093805386249  0.5935237988310986  0.8269990520968598  1.0000
  C   C11       1.0  0.40244476898271425  0.5489020871161108  0.7445400180813071  1.0000
  C   C12       1.0  0.4375992853544581  0.36886862643416785  0.4123123394605457  1.0000
  C   C13       1.0  0.4967348012655994  0.3241524204734172  0.32990958319729025  1.0000
  C   C14       1.0  0.5701032586077618  0.3854615816891276  0.34413001556752243  1.0000
  H   H1        1.0  0.5370197899232438  0.6209236892017478  0.5974150025754155  1.0000
  H   H2        1.0  0.3024277501430883  0.5264090615071308  0.4230012202660791  1.0000
  H   H3        1.0  0.2243842954893441  0.6479353945008162  0.8296672881792739  1.0000
  H   H4        1.0  0.3545197269436892  0.612440332243052  0.9396769523268877  1.0000
  H   H5        1.0  0.45878116689989906  0.532497474674082  0.7957905052345451  1.0000
  H   H6        1.0  0.3814364670356941  0.3184428006460678  0.4007815402271573  1.0000
  H   H7        1.0  0.48569018817793486  0.24148226605196732  0.2551225723783528  1.0000
  H   H8        1.0  0.6154516918052607  0.3498667319177855  0.2796197117331658  1.0000
  C   C15       1.0  0.9218623174740166  0.1926390193298284  0.4872695429110312  1.0000
  C   C16       1.0  0.9588183310708347  0.27587379058607886  0.3767526123793299  1.0000
  C   C17       1.0  0.9882261907289185  0.21108706588686044  0.2605274706927345  1.0000
  C   C18       1.0  0.9804168140414364  0.061452482860687496  0.2506072826123451  1.0000
  C   C19       1.0  0.9462489971031439  0.9766812665816511  0.36321113521504134  1.0000
  C   C20       1.0  0.9173708354681885  0.04003439452286006  0.4824327986071044  1.0000
  C   C21       1.0  0.014143502018191256  0.9909125454041146  0.12703589635869417  1.0000
  F   F1        1.0  0.014052617643576237  0.08487341649259661  0.003540564217158204  1.0000
  F   F2        1.0  0.9720524188679918  0.8683564382377942  0.09575243332660865  1.0000
  F   F3        1.0  0.08876181022436302  0.9521707630735305  0.16499767521205033  1.0000
  H   H9        1.0  0.7917611843761184  0.27017538131899443  0.7347981093960816  1.0000
  H   H10       1.0  0.9636474540683914  0.39238227518961843  0.3786807491452673  1.0000
  H   H11       1.0  0.016558580836326664  0.2785125563960502  0.17754808260560084  1.0000
  H   H12       1.0  0.9438142381908882  0.860106530171563  0.35974964713991  1.0000
  H   H13       1.0  0.8800446877204249  0.9103128768378455  0.8281671021512864  1.0000
  C   C22       1.0  0.9215810472407789  0.6142573009944319  0.061720229047185216  1.0000
  C   C23       1.0  0.9607135575794081  0.7261902670754197  0.1296228765484384  1.0000
  C   C24       1.0  0.9930434749760937  0.8439670195720885  0.04819935225646965  1.0000
  C   C25       1.0  0.9873839921689813  0.8488821835862217  0.897021737913426  1.0000
  C   C26       1.0  0.949904009628571  0.7376763323565674  0.8278124880614297  1.0000
  C   C27       1.0  0.9176520827836347  0.6184160769197999  0.9079821138676256  1.0000
  C   C28       1.0  0.035690346374882775  0.961789462110092  0.12264930985967748  1.0000
  C   C29       1.0  0.12012299201460008  0.9247427673283466  0.14834143532157262  1.0000
  H   H14       1.0  0.888386346444251  0.3823937078711068  0.35775019833745114  1.0000
  H   H15       1.0  0.9646918664929914  0.7237094539487061  0.24672150595532005  1.0000
  H   H16       1.0  0.01276399958985297  0.9383343893364628  0.8324686178012275  1.0000
  H   H17       1.0  0.9479012262937445  0.7432025433175138  0.7106277271701025  1.0000
  H   H18       1.0  0.8280093103798014  0.4476927612508923  0.6329139922489206  1.0000
  H   H19       1.0  0.03093633247612515  0.06633003496399859  0.05583157826540486  1.0000
  H   H20       1.0  0.010103246465551274  0.9768813114527863  0.2281274325561231  1.0000
  H   H21       1.0  0.12612504396030055  0.8223680024168893  0.21816885730350344  1.0000
  H   H22       1.0  0.14717428249288922  0.9127852050432299  0.04368133984304534  1.0000
  H   H23       1.0  0.15049627471118288  0.012865452238976172  0.20320074732664217  1.0000
  Zn  Zn1       1.0  0.8356073754987374  0.6122232960670881  0.47725927974169213  1.0000
  Zn  Zn2       1.0  0.0036184239148440156  0.620449040996607  0.4924417136073964  1.0000
  C   C30       1.0  0.9184234989521474  0.6118819193158007  0.7480531280930349  1.0000
  C   C31       1.0  0.9208041248308676  0.6207923287842703  0.22164816208133553  1.0000
  C   C32       1.0  0.9182425171028834  0.8798302036536769  0.4776047866107398  1.0000
  C   C33       1.0  0.9209850581812536  0.35284230851122667  0.4920965850980903  1.0000
  O   O1        1.0  0.9843027332138461  0.626100876466922  0.2810831278242145  1.0000
  O   O2        1.0  0.9824413965010146  0.612815431187735  0.7001408697851899  1.0000
  O   O3        1.0  0.9822943849068265  0.8291870247409836  0.4817518343372076  1.0000
  O   O4        1.0  0.984449687924126  0.409729289897347  0.49947204999481243  1.0000
  O   O5        1.0  0.8547760541555571  0.8229430443608394  0.4702289381656686  1.0000
  O   O6        1.0  0.8549230569147249  0.6065731839372479  0.6886178868905835  1.0000
  O   O7        1.0  0.8567844019880247  0.6198585704258113  0.2695584128384707  1.0000
  O   O8        1.0  0.8569313562483146  0.4034869740670526  0.48794744309784566  1.0000
