data_image0
_chemical_formula_structural       NC8NC6H8C7NH5C8H10Zn2C4O8
_chemical_formula_sum              "N3 C33 H23 Zn2 O8"
_cell_length_a       17.457602349358154
_cell_length_b       10.302819778424748
_cell_length_c       9.275657083861812
_cell_angle_alpha    85.85420737229721
_cell_angle_beta     92.37146316173272
_cell_angle_gamma    91.68806980205999

_space_group_name_H-M_alt    "P 1"
_space_group_IT_number       1

loop_
  _space_group_symop_operation_xyz
  'x, y, z'

loop_
  _atom_site_type_symbol
  _atom_site_label
  _atom_site_symmetry_multiplicity
  _atom_site_fract_x
  _atom_site_fract_y
  _atom_site_fract_z
  _atom_site_occupancy
  N   N1        1.0  0.7294603100250923  0.44564656498249455  0.47605640559722384  1.0000
  C   C1        1.0  0.6684367530205975  0.39968351938396607  0.4642778550148765  1.0000
  C   C2        1.0  0.5925208161979603  0.3425112500630114  0.4496359252562234  1.0000
  C   C3        1.0  0.533608545789387  0.38302796109726467  0.5327377349075009  1.0000
  C   C4        1.0  0.45912754443493103  0.32797631134135563  0.5187775475515279  1.0000
  C   C5        1.0  0.3966017282876585  0.3707571608123259  0.6067855157281223  1.0000
  C   C6        1.0  0.322340697010327  0.38894637378240926  0.5449137940147628  1.0000
  C   C7        1.0  0.2634278707974259  0.4292797457460502  0.6281353823465439  1.0000
  C   C8        1.0  0.1877400322568744  0.44806375934495013  0.5638055229471466  1.0000
  N   N2        1.0  0.1268999258038739  0.4631597292990035  0.5120844835828429  1.0000
  C   C9        1.0  0.2782813084244087  0.4516694646621753  0.7737929119155005  1.0000
  C   C10       1.0  0.3517556503321145  0.4338710186338952  0.8360946884228779  1.0000
  C   C11       1.0  0.4106545270805086  0.393719889873289  0.7533809592077292  1.0000
  C   C12       1.0  0.44485479904003195  0.23172371394823532  0.42012567190859196  1.0000
  C   C13       1.0  0.5037533024007722  0.1914875581798583  0.3374676810842987  1.0000
  C   C14       1.0  0.5774467211378133  0.24665424568615335  0.3520380585474625  1.0000
  H   H1        1.0  0.5456112893433963  0.4585257547257182  0.6066670340794458  1.0000
  H   H2        1.0  0.3105182868254859  0.3734804070580564  0.43171377399034205  1.0000
  H   H3        1.0  0.2331189670106635  0.482831197431139  0.8390734991490425  1.0000
  H   H4        1.0  0.36306626141152637  0.4508923326878904  0.9488805618809117  1.0000
  H   H5        1.0  0.4669039744402906  0.37895883116189744  0.8045378108665044  1.0000
  H   H6        1.0  0.38842470505869026  0.18634997667410347  0.40830704831190023  1.0000
  H   H7        1.0  0.49227050669630257  0.11710000361816375  0.2622087992709119  1.0000
  H   H8        1.0  0.6226064883708325  0.21462559099195122  0.2873245837226024  1.0000
  C   C15       1.0  0.9281837485884386  0.07315028916631028  0.494076978605434  1.0000
  C   C16       1.0  0.8828380862634909  0.0618367657871044  0.616200530552258  1.0000
  C   C17       1.0  0.8602781726730206  0.9391056001767578  0.6769581510380343  1.0000
  C   C18       1.0  0.8828381481360711  0.8265357587246892  0.6162005408852034  1.0000
  C   C19       1.0  0.9281837610315116  0.8356463170949822  0.49407702257917663  1.0000
  C   C20       1.0  0.950619685357212  0.9594510242923276  0.4336533371957385  1.0000
  C   C21       1.0  0.8137922952204937  0.9286366923470012  0.8021527455491435  1.0000
  N   N3        1.0  0.776432861469772  0.9202231459068674  0.9027681299033994  1.0000
  H   H9        1.0  0.9453595819921272  0.40475800436209797  0.4478189321116377  1.0000
  H   H10       1.0  0.8649542636202924  0.14823350943618196  0.6643644658759187  1.0000
  H   H11       1.0  0.8649543594913789  0.7320839093780498  0.6643644403205282  1.0000
  H   H12       1.0  0.9855886574043023  0.9673261699643286  0.339476053780694  1.0000
  H   H13       1.0  0.9453596518398573  0.5117749273595433  0.4478190480058202  1.0000
  C   C22       1.0  0.9301372123199014  0.4525272620414895  0.07093420963362851  1.0000
  C   C23       1.0  0.9698630090788521  0.5532458306697015  0.1394757566311502  1.0000
  C   C24       1.0  0.0028171871409370386  0.6592227054409894  0.05872448744397207  1.0000
  C   C25       1.0  0.9971837565342205  0.6636454264802785  0.9075749282478842  1.0000
  C   C26       1.0  0.9591143415530838  0.5635811241474991  0.8377309291810646  1.0000
  C   C27       1.0  0.9262302909244937  0.4562693763900494  0.9172198322315697  1.0000
  C   C28       1.0  0.04608856137936623  0.7652406926363016  0.13384696094506232  1.0000
  C   C29       1.0  0.13032484573517134  0.7319056511247253  0.15932762846509085  1.0000
  H   H14       1.0  0.895713548100145  0.2438937375847292  0.36564073027390154  1.0000
  H   H15       1.0  0.9738281687586489  0.5510135665217479  0.2565602258642019  1.0000
  H   H16       1.0  0.023037893970560885  0.7441355487315002  0.8435323902384839  1.0000
  H   H17       1.0  0.9571408491951141  0.5685536722484876  0.7205777112169272  1.0000
  H   H18       1.0  0.8356826213454591  0.3026505758912439  0.6411772430882277  1.0000
  H   H19       1.0  0.04188865146282561  0.8593075009240454  0.06762593398280758  1.0000
  H   H20       1.0  0.020581453893947055  0.7788205120315008  0.23941122604691745  1.0000
  H   H21       1.0  0.13578427328761067  0.6397876617017408  0.22857070797828727  1.0000
  H   H22       1.0  0.15731275667861588  0.7211460992267764  0.05459928070318387  1.0000
  H   H23       1.0  0.1611652114914659  0.8111994552525608  0.2146899338328001  1.0000
  Zn  Zn1       1.0  0.8441527595939863  0.4506970410437132  0.4864616504801256  1.0000
  Zn  Zn2       1.0  0.012207407522681457  0.4580986608185569  0.5016910358783044  1.0000
  C   C30       1.0  0.926967073623436  0.4503898663215873  0.7572535502952855  1.0000
  C   C31       1.0  0.9293949279918697  0.45840755511316456  0.23089944379638472  1.0000
  C   C32       1.0  0.9282063175040172  0.6914928104298466  0.48833462440772823  1.0000
  C   C33       1.0  0.9281556264113074  0.21730304899050168  0.49981844130989894  1.0000
  O   O1        1.0  0.9929216736552402  0.4631842472960952  0.29036471007143994  1.0000
  O   O2        1.0  0.9909899191329998  0.4512298510269923  0.7093466203574967  1.0000
  O   O3        1.0  0.9919897575928486  0.6459234963175202  0.4921926071461984  1.0000
  O   O4        1.0  0.9919217783484997  0.2684906082895573  0.5075186100452163  1.0000
  O   O5        1.0  0.8644383314193992  0.640305091048283  0.48063407110859235  1.0000
  O   O6        1.0  0.8634384933107633  0.44561300524772895  0.6977880074893121  1.0000
  O   O7        1.0  0.8653702558818598  0.4575673486163532  0.27880436477654924  1.0000
  O   O8        1.0  0.8643703600732427  0.2628737008013957  0.49595837278322663  1.0000
