data_image0
_chemical_formula_structural       NC8NC6H8C6H6C6H6Zn2C4O8
_chemical_formula_sum              "N2 C30 H20 Zn2 O8"
_cell_length_a       17.457602349358154
_cell_length_b       10.681118228259551
_cell_length_c       10.681121600428288
_cell_angle_alpha    85.56070829977578
_cell_angle_beta     92.87590736930572
_cell_angle_gamma    91.68806569353352

_space_group_name_H-M_alt    "P 1"
_space_group_IT_number       1

loop_
  _space_group_symop_operation_xyz
  'x, y, z'

loop_
  _atom_site_type_symbol
  _atom_site_label
  _atom_site_symmetry_multiplicity
  _atom_site_fract_x
  _atom_site_fract_y
  _atom_site_fract_z
  _atom_site_occupancy
  N   N1        1.0  0.7224249513996148  0.4009452747391571  0.675570081807294  1.0000
  C   C1        1.0  0.6613470205668199  0.35666036280441316  0.6653335710483579  1.0000
  C   C2        1.0  0.5853634915772675  0.3015754426213846  0.6526085527654033  1.0000
  C   C3        1.0  0.5268348596106549  0.34030270903880266  0.7248307293691507  1.0000
  C   C4        1.0  0.4522894132687921  0.2872603936299585  0.712698200236308  1.0000
  C   C5        1.0  0.3901698847870015  0.3281506827216145  0.7891842243894893  1.0000
  C   C6        1.0  0.3156232214535808  0.34595957328413984  0.7354127070044003  1.0000
  C   C7        1.0  0.2570945866496045  0.38450948316438893  0.8077389809437316  1.0000
  C   C8        1.0  0.1811097680159665  0.40290259240429016  0.751831143610223  1.0000
  N   N2        1.0  0.12003089034208751  0.4176845003955465  0.7068813880457396  1.0000
  C   C9        1.0  0.2726204524550687  0.4054849587893794  0.9343271245511795  1.0000
  C   C10       1.0  0.3463824117536691  0.3880511609208128  0.9884723942462419  1.0000
  C   C11       1.0  0.404899441621021  0.3496748735352726  0.9165874908492813  1.0000
  C   C12       1.0  0.4375612447862849  0.19483759026614478  0.6269617617063152  1.0000
  C   C13       1.0  0.49607815858629384  0.1563790495823989  0.5551252994672762  1.0000
  C   C14       1.0  0.5698388392532834  0.20952972582219842  0.5677881330282739  1.0000
  H   H1        1.0  0.5391788951617759  0.41281123806217623  0.7890812544963763  1.0000
  H   H2        1.0  0.3032782231443649  0.33152419077854156  0.6370327575920727  1.0000
  H   H3        1.0  0.2277594780659567  0.43526458756666564  0.9910612211926899  1.0000
  H   H4        1.0  0.35821369898085587  0.4039885706559354  0.08649241688656772  1.0000
  H   H5        1.0  0.4613850556105702  0.33521842143046965  0.9610469217848352  1.0000
  H   H6        1.0  0.38107659195435206  0.151121285748534  0.61669042426664  1.0000
  H   H7        1.0  0.4842479328091226  0.08494710864530663  0.4897192597684652  1.0000
  H   H8        1.0  0.6146998575771808  0.17891146048829354  0.5115469028173536  1.0000
  C   C15       1.0  0.9212315978226425  0.041565023706776394  0.6912314125676355  1.0000
  C   C16       1.0  0.9549116304979762  0.9684696887340888  0.7933366598280536  1.0000
  C   C17       1.0  0.9549116187682766  0.8375874500644719  0.7933366016499972  1.0000
  C   C18       1.0  0.9212315849414959  0.7770554271213049  0.6912314656883027  1.0000
  C   C19       1.0  0.8875794327089125  0.8501405360798384  0.589210599348789  1.0000
  C   C20       1.0  0.8875794444001973  0.9810327946708877  0.5892106510954387  1.0000
  H   H9        1.0  0.887171761306493  0.3466272183221146  0.5879758638138808  1.0000
  H   H10       1.0  0.9813116745588163  0.012356752213803501  0.8733715362332284  1.0000
  H   H11       1.0  0.981311580231638  0.7838527196468872  0.8733715066841383  1.0000
  H   H12       1.0  0.8611759464490282  0.8062988707359322  0.5091652732415128  1.0000
  H   H13       1.0  0.8611759263385692  0.03472330892317621  0.5091652614750781  1.0000
  H   H14       1.0  0.8871720437748585  0.4846978793245166  0.5879755473007333  1.0000
  C   C21       1.0  0.9212316036165656  0.4093101935535084  0.3234862118694293  1.0000
  C   C22       1.0  0.8663177997230852  0.33734965370317394  0.25773927483053827  1.0000
  C   C23       1.0  0.8663177518222825  0.3373497319855219  0.12685713110548114  1.0000
  C   C24       1.0  0.9212315433036634  0.4093102524022447  0.058976642796159995  1.0000
  C   C25       1.0  0.9761000229306034  0.48121116621266147  0.12471943021313736  1.0000
  C   C26       1.0  0.9761000131147501  0.4812111463806594  0.255611728103186  1.0000
  H   H15       1.0  0.9767640160545596  0.48208204948209477  0.6211171189607962  1.0000
  H   H16       1.0  0.8232737678271581  0.2809435816848289  0.307386402324932  1.0000
  H   H17       1.0  0.8232737518040107  0.28094363995843374  0.07888237183758773  1.0000
  H   H18       1.0  0.019149675833110447  0.537624668948262  0.07511708073939283  1.0000
  H   H19       1.0  0.019149637178016876  0.5376246234205364  0.3035414451797209  1.0000
  H   H20       1.0  0.9767642555038532  0.4820816232542484  0.7591881121038702  1.0000
  Zn  Zn1       1.0  0.8371654366494573  0.4057724953436672  0.6846130790258507  1.0000
  Zn  Zn2       1.0  0.0052903908421599866  0.4128470122117045  0.6978486435268465  1.0000
  C   C27       1.0  0.9212298636158661  0.40432122396287706  0.9199530850511617  1.0000
  C   C28       1.0  0.92122779979497  0.41429994094948563  0.4625089049465503  1.0000
  C   C29       1.0  0.9212276309811387  0.6380318927018869  0.6862408450609356  1.0000
  C   C30       1.0  0.9212299750604439  0.18058776521321485  0.6962212071855078  1.0000
  O   O1        1.0  0.9850290671234273  0.4186538246253999  0.5141890184812372  1.0000
  O   O2        1.0  0.9850315463730813  0.4053357901605936  0.8783180982314613  1.0000
  O   O3        1.0  0.9850288834034336  0.5940600746506008  0.6895937431754708  1.0000
  O   O4        1.0  0.9850316727234213  0.22992954667979815  0.7029132751246858  1.0000
  O   O5        1.0  0.8574240973954008  0.5886899584627514  0.6795484429047756  1.0000
  O   O6        1.0  0.8574267603615063  0.399967178557183  0.868272731188799  1.0000
  O   O7        1.0  0.8574242811629493  0.41328516938422344  0.5041421458200102  1.0000
  O   O8        1.0  0.8574268867598016  0.22456088248139427  0.6928664963527649  1.0000
