data_image0
_chemical_formula_structural       NC9NC5H8C6OCH8C7F3H5Zn2C4O8
_chemical_formula_sum              "N2 C32 H21 O9 F3 Zn2"
_cell_length_a       17.807436237873137
_cell_length_b       9.273888216677433
_cell_length_c       9.272291681409872
_cell_angle_alpha    86.26440928452506
_cell_angle_beta     89.81650948764641
_cell_angle_gamma    87.81887448081709

_space_group_name_H-M_alt    "P 1"
_space_group_IT_number       1

loop_
  _space_group_symop_operation_xyz
  'x, y, z'

loop_
  _atom_site_type_symbol
  _atom_site_label
  _atom_site_symmetry_multiplicity
  _atom_site_fract_x
  _atom_site_fract_y
  _atom_site_fract_z
  _atom_site_occupancy
  N   N1        1.0  0.6934919739039636  0.5277117714005914  0.403819487231476  1.0000
  C   C1        1.0  0.63306237236969  0.48852163049110797  0.39144224837421215  1.0000
  C   C2        1.0  0.5578945897318471  0.43977341088207744  0.3760463073584144  1.0000
  C   C3        1.0  0.5397852053714737  0.35945620333992734  0.259201350337374  1.0000
  C   C4        1.0  0.4668014663397499  0.31200081335064933  0.24416071916327953  1.0000
  C   C5        1.0  0.41088043901353305  0.34444299698982084  0.3459275208181418  1.0000
  C   C6        1.0  0.3333172114342232  0.2941385569809767  0.33003479022025006  1.0000
  C   C7        1.0  0.270775284431215  0.38519197479208067  0.3591538731187931  1.0000
  C   C8        1.0  0.1976504683414641  0.3375111979905818  0.3441276221042051  1.0000
  C   C9        1.0  0.1340444100744123  0.43155737981959996  0.37366136097239533  1.0000
  N   N2        1.0  0.0829181582621325  0.5071640138871158  0.3974056573469116  1.0000
  C   C10       1.0  0.1864854194021151  0.19849022192718646  0.2999531227639498  1.0000
  C   C11       1.0  0.2481700221603236  0.10742133866383763  0.2708246716106071  1.0000
  C   C12       1.0  0.3211768535641548  0.15466197388960912  0.28562452161694973  1.0000
  C   C13       1.0  0.429679272812851  0.4253113814527629  0.4630178041365236  1.0000
  C   C14       1.0  0.5027163443951401  0.4725538223378982  0.4778848944545213  1.0000
  H   H1        1.0  0.5820161398962127  0.3338015708779678  0.17950537652018683  1.0000
  H   H2        1.0  0.45385906145589267  0.2515890083490977  0.1518993618564266  1.0000
  H   H3        1.0  0.2788285520154667  0.4937210751530823  0.39159691496933524  1.0000
  H   H4        1.0  0.1301734226685587  0.16058555832358667  0.2880567352751122  1.0000
  H   H5        1.0  0.2394087598307351  0.9997917476359761  0.23705234110227602  1.0000
  H   H6        1.0  0.3681190850221566  0.08145764867025784  0.264218073126711  1.0000
  H   H7        1.0  0.3881736321073895  0.45037956215244423  0.5441486273675271  1.0000
  H   H8        1.0  0.5161757878878402  0.5343114665748312  0.5689948175548956  1.0000
  C   C15       1.0  0.8904095422219317  0.09384659824263086  0.39910331440314195  1.0000
  C   C16       1.0  0.8723873750589781  0.1769343975257769  0.2706268309507138  1.0000
  C   C17       1.0  0.8479935051927248  0.11242042710539857  0.14791147929068216  1.0000
  C   C18       1.0  0.8414811276508798  0.9618285681700205  0.15321193952034884  1.0000
  C   C19       1.0  0.8602793788048546  0.8774804682722986  0.2789024110763365  1.0000
  C   C20       1.0  0.886007853636664  0.9410178496524385  0.40213419158162567  1.0000
  O   O1        1.0  0.8304424014061711  0.2016875316715585  0.023665813216249942  1.0000
  C   C21       1.0  0.8048738154194857  0.15095199253632785  0.8914106608477721  1.0000
  H   H9        1.0  0.8978388105908336  0.17324119023700457  0.7537674364863964  1.0000
  H   H10       1.0  0.875545236191494  0.29360598220772327  0.2663014983669385  1.0000
  H   H11       1.0  0.8225899895248604  0.9085731418700739  0.06028062237938214  1.0000
  H   H12       1.0  0.8563729485719024  0.7612139717020283  0.2784866832686046  1.0000
  H   H13       1.0  0.8941566070036918  0.6437378280169077  0.6399634098415938  1.0000
  H   H14       1.0  0.7510133261623723  0.09581515111583938  0.9089133333021286  1.0000
  H   H15       1.0  0.8478545201417367  0.07569787543079376  0.8474726494794473  1.0000
  H   H16       1.0  0.795440908440069  0.24443821285095768  0.8118582473303659  1.0000
  C   C22       1.0  0.8866463081776301  0.5138129862517196  0.9772708433877635  1.0000
  C   C23       1.0  0.937654626138586  0.42036428507937695  0.05633310352654686  1.0000
  C   C24       1.0  0.9926789675908186  0.33962560324258595  0.98635796201927  1.0000
  C   C25       1.0  0.9988829912085979  0.3518706183433147  0.8354073585511919  1.0000
  C   C26       1.0  0.946402257779286  0.4406195335737708  0.7551824635461757  1.0000
  C   C27       1.0  0.8897710921606606  0.5210515015299133  0.8239666195856992  1.0000
  C   C28       1.0  0.05702592324479716  0.2614670313471881  0.7595593580575568  1.0000
  F   F1        1.0  0.12007028980218948  0.23379138175862568  0.8453551196909332  1.0000
  F   F2        1.0  0.07914165262439932  0.3324668469249761  0.6313747681725208  1.0000
  F   F3        1.0  0.02674991442705288  0.13165460609330748  0.7296399238705513  1.0000
  H   H17       1.0  0.7793154684009523  0.8108807289670177  0.06014708294540738  1.0000
  H   H18       1.0  0.935965070976789  0.4118438691184183  0.1733775442989427  1.0000
  H   H19       1.0  0.0308920819022096  0.2683773116959949  0.05070011121169604  1.0000
  H   H20       1.0  0.9485246459586038  0.4443541047080868  0.6381731511383579  1.0000
  H   H21       1.0  0.7187637153702578  0.6682202091173486  0.7139233055459759  1.0000
  Zn  Zn1       1.0  0.8058720082165658  0.521778354780422  0.4019769182420987  1.0000
  Zn  Zn2       1.0  0.9705382105848422  0.5130857736352274  0.39926003610438854  1.0000
  C   C29       1.0  0.8892086304957214  0.5139368547019119  0.663902487422211  1.0000
  C   C30       1.0  0.8872033775212945  0.5209290000357292  0.13733458526469167  1.0000
  C   C31       1.0  0.8868148104005608  0.7808355411819561  0.3958165249087964  1.0000
  C   C32       1.0  0.8895971507154917  0.2540285841315677  0.4054206193650094  1.0000
  O   O2        1.0  0.9498803334123224  0.5200121170153402  0.1900223741127074  1.0000
  O   O3        1.0  0.9515095162080124  0.5082551780279911  0.6091522290059472  1.0000
  O   O4        1.0  0.9495756393448168  0.7237793000397428  0.3926709367887964  1.0000
  O   O5        1.0  0.951814153633558  0.30448800736444426  0.40650355920072667  1.0000
  O   O6        1.0  0.8245960089753204  0.7303761240190616  0.39473339606532143  1.0000
  O   O7        1.0  0.8265298765469503  0.5148537343992838  0.6112146176151312  1.0000
  O   O8        1.0  0.8249006876656371  0.5266106082997495  0.1920830292701461  1.0000
  O   O9        1.0  0.8268345083363031  0.31108648925585447  0.4085643224068587  1.0000
