data_image0
_chemical_formula_structural       NC9NC5H8C6NCH9C6H6Zn2C4O8
_chemical_formula_sum              "N3 C31 H23 Zn2 O8"
_cell_length_a       17.807436237873137
_cell_length_b       9.273386996610926
_cell_length_c       10.681121600428288
_cell_angle_alpha    85.46621756597041
_cell_angle_beta     89.39214167786866
_cell_angle_gamma    87.7895077601149

_space_group_name_H-M_alt    "P 1"
_space_group_IT_number       1

loop_
  _space_group_symop_operation_xyz
  'x, y, z'

loop_
  _atom_site_type_symbol
  _atom_site_label
  _atom_site_symmetry_multiplicity
  _atom_site_fract_x
  _atom_site_fract_y
  _atom_site_fract_z
  _atom_site_occupancy
  N   N1        1.0  0.6990028323624617  0.5420759800108099  0.6065708825988929  1.0000
  C   C1        1.0  0.6386285469556291  0.5029734360889475  0.5959940253298555  1.0000
  C   C2        1.0  0.5635295715584565  0.4543341776476675  0.5828375632277203  1.0000
  C   C3        1.0  0.5458709735322863  0.3749789133436985  0.48169370897134556  1.0000
  C   C4        1.0  0.4729544124225564  0.3276300481136192  0.4688401233793995  1.0000
  C   C5        1.0  0.4166500185558203  0.3592169386352111  0.5570996710876273  1.0000
  C   C6        1.0  0.3391578143257435  0.3090249835204557  0.5435186069796469  1.0000
  C   C7        1.0  0.2764860315428195  0.39987178350876285  0.568407181639119  1.0000
  C   C8        1.0  0.2034283959042614  0.35229730342384236  0.5555670957891785  1.0000
  C   C9        1.0  0.1396902145103721  0.44613471574183183  0.5808025002228094  1.0000
  N   N2        1.0  0.0884577403660405  0.5215735031909878  0.6010910736949937  1.0000
  C   C10       1.0  0.192460561480723  0.21358935768867893  0.5178143815669853  1.0000
  C   C11       1.0  0.2542750583868399  0.122727165166858  0.49291773787255266  1.0000
  C   C12       1.0  0.3272156529412085  0.16986323494703615  0.5055631175771242  1.0000
  C   C13       1.0  0.4349970252366499  0.4391215384721421  0.6584541753960946  1.0000
  C   C14       1.0  0.5079676115078171  0.4862588396453065  0.6711579585404726  1.0000
  H   H1        1.0  0.5884021926473455  0.3499939652478514  0.4125766937353308  1.0000
  H   H2        1.0  0.46036720925323354  0.26797919979885365  0.3889629897630986  1.0000
  H   H3        1.0  0.28439287415648  0.5081739812524522  0.5961051365918557  1.0000
  H   H4        1.0  0.1362017903076991  0.17576877747774278  0.5076494913334828  1.0000
  H   H5        1.0  0.2456649023406914  0.015336265438655738  0.4640610109392047  1.0000
  H   H6        1.0  0.3742548912550128  0.09680788035162058  0.48729468651835206  1.0000
  H   H7        1.0  0.3931859520799525  0.4635074891702986  0.7288202632989116  1.0000
  H   H8        1.0  0.5210757685357195  0.5472660027109246  0.7500288263639951  1.0000
  C   C15       1.0  0.8960447685186853  0.10804892756030937  0.6044138111549526  1.0000
  C   C16       1.0  0.9092398163018784  0.19082988659399147  0.49099848188143946  1.0000
  C   C17       1.0  0.9153592063884851  0.12600484756518737  0.3776757102149151  1.0000
  C   C18       1.0  0.9083761182138345  0.9760718002754238  0.3748717667446264  1.0000
  C   C19       1.0  0.8965053864894352  0.892258209635681  0.48787512792276955  1.0000
  C   C20       1.0  0.8914230261446036  0.9555890907770475  0.6032589550240017  1.0000
  N   N3        1.0  0.9138602350923701  0.9062437798582108  0.25922005054125163  1.0000
  C   C21       1.0  0.9263790771457423  0.9834812345658347  0.13683877221662666  1.0000
  H   H9        1.0  0.9113977777397345  0.3693854061524602  0.8097957703396599  1.0000
  H   H10       1.0  0.9130727604629257  0.30727399863373583  0.48940816179206226  1.0000
  H   H11       1.0  0.9248361693167958  0.19410806060994235  0.2924786237283903  1.0000
  H   H12       1.0  0.8929583310648279  0.7760438710339045  0.48594947865455795  1.0000
  H   H13       1.0  0.9190921938395301  0.8227705284523674  0.9078821271800384  1.0000
  H   H14       1.0  0.9085473417456553  0.7941563489521672  0.26189163772350543  1.0000
  H   H15       1.0  0.8797924328939385  0.06450730076070177  0.11573594501944262  1.0000
  H   H16       1.0  0.9807716502701082  0.03816954335086953  0.1362755282260919  1.0000
  H   H17       1.0  0.9282734975556588  0.9059449101614935  0.06267495533317846  1.0000
  C   C22       1.0  0.8937339217787533  0.5318189974413663  0.2360911424836527  1.0000
  C   C23       1.0  0.8403835277741508  0.4543911712282829  0.1755348308743876  1.0000
  C   C24       1.0  0.8403834803507424  0.4543912662305578  0.04465269145557027  1.0000
  C   C25       1.0  0.8937338623165312  0.5318190712915603  0.9715815788948299  1.0000
  C   C26       1.0  0.9470402239050888  0.6091827235967875  0.03213802543851929  1.0000
  C   C27       1.0  0.9470402144124875  0.6091827017257938  0.16303032426733788  1.0000
  H   H18       1.0  0.947685308146764  0.6101198319457923  0.5284729502610623  1.0000
  H   H19       1.0  0.7985649703789489  0.3936995814880766  0.22925061562857274  1.0000
  H   H20       1.0  0.7985649543138594  0.3936996502430674  0.0007465865313076581  1.0000
  H   H21       1.0  0.9888642418682136  0.6698823135603522  0.9784664872880149  1.0000
  H   H22       1.0  0.9888642042814234  0.669882264965155  0.20689085537409335  1.0000
  H   H23       1.0  0.9476855454289733  0.6101193168196539  0.6665439219326652  1.0000
  Zn  Zn1       1.0  0.8113911259277767  0.5361555574666221  0.604996775849993  1.0000
  Zn  Zn2       1.0  0.9760694927496819  0.5274821624208341  0.6026754916829884  1.0000
  C   C28       1.0  0.8937635668831767  0.5260701470678528  0.8325660106961539  1.0000
  C   C29       1.0  0.8936988401477547  0.5375692989340344  0.3751063519203195  1.0000
  C   C30       1.0  0.8922927785920788  0.795386175797179  0.5984869830655286  1.0000
  C   C31       1.0  0.8951695817002407  0.26825153936225266  0.6091854494707722  1.0000
  O   O1        1.0  0.956181682743701  0.5362013486769757  0.4208802194617405  1.0000
  O   O2        1.0  0.9562678002436421  0.5208541025100526  0.7850299831751895  1.0000
  O   O3        1.0  0.9550792776410071  0.7383302460462056  0.5960095220461996  1.0000
  O   O4        1.0  0.9573701490964749  0.31872521842371726  0.6099005874726198  1.0000
  O   O5        1.0  0.8300904133843309  0.7449125044251137  0.5977716808459124  1.0000
  O   O6        1.0  0.831278926528925  0.5274380946927903  0.7867920728406257  1.0000
  O   O7        1.0  0.8311928093532597  0.542785290568748  0.42264080357241096  1.0000
  O   O8        1.0  0.8323812757592416  0.32530914999396976  0.6116612654869527  1.0000
