data_image0
_chemical_formula_structural       NC8NC6H8C7F3H5C6ClH5Zn2C4O8
_chemical_formula_sum              "N2 C31 H18 F3 Cl1 Zn2 O8"
_cell_length_a       17.457602349358154
_cell_length_b       9.27228830945605
_cell_length_c       10.302974078461048
_cell_angle_alpha    85.26210322336898
_cell_angle_beta     92.87591007631781
_cell_angle_gamma    91.12935064675003

_space_group_name_H-M_alt    "P 1"
_space_group_IT_number       1

loop_
  _space_group_symop_operation_xyz
  'x, y, z'

loop_
  _atom_site_type_symbol
  _atom_site_label
  _atom_site_symmetry_multiplicity
  _atom_site_fract_x
  _atom_site_fract_y
  _atom_site_fract_z
  _atom_site_occupancy
  N   N1        1.0  0.7138268741770764  0.6141447491093466  0.61865882184132  1.0000
  C   C1        1.0  0.6530207334353865  0.5631204502711507  0.6083090042322483  1.0000
  C   C2        1.0  0.5773752775012118  0.4996525713448978  0.5954433372836034  1.0000
  C   C3        1.0  0.5186089661949715  0.544273441808047  0.6700867967276012  1.0000
  C   C4        1.0  0.4443890568196961  0.483159016265579  0.6578232618724775  1.0000
  C   C5        1.0  0.3820185739701566  0.5302720831201473  0.7368742472985008  1.0000
  C   C6        1.0  0.3073626103868158  0.5507911805987251  0.6810236435741841  1.0000
  C   C7        1.0  0.24859738473876591  0.595207703954999  0.755776071904414  1.0000
  C   C8        1.0  0.1724996802621951  0.6163999281872186  0.6977072777135593  1.0000
  N   N2        1.0  0.1113300801263569  0.6334313884303409  0.6510201546330716  1.0000
  C   C9        1.0  0.26399452103203  0.6193752662318348  0.8868860643022105  1.0000
  C   C10       1.0  0.3378634785296666  0.5992883439463352  0.9431219155426287  1.0000
  C   C11       1.0  0.39661603367783654  0.5550718653409974  0.868826028508308  1.0000
  C   C12       1.0  0.430228113629843  0.3766710899909491  0.5694876919007374  1.0000
  C   C13       1.0  0.48898105752628973  0.3323598405708972  0.49524251132420116  1.0000
  C   C14       1.0  0.562415536197209  0.3935991175089324  0.5080551721753905  1.0000
  H   H1        1.0  0.5305079959908826  0.6278164922383194  0.7362658589350544  1.0000
  H   H2        1.0  0.2951062037811434  0.5341589960904742  0.5791184120556869  1.0000
  H   H3        1.0  0.2189507813239484  0.6536868269520753  0.9455260058758062  1.0000
  H   H4        1.0  0.3495969556315344  0.6176511379597591  0.044645110019726486  1.0000
  H   H5        1.0  0.45319037269084644  0.5384153897219603  0.9150029022668906  1.0000
  H   H6        1.0  0.3740117611661813  0.32630193066378754  0.5590984002059349  1.0000
  H   H7        1.0  0.4775892301135294  0.25005721620018573  0.42785914485897814  1.0000
  H   H8        1.0  0.6074644668291914  0.358321294384087  0.44993115576594467  1.0000
  C   C15       1.0  0.9148391502293524  0.20007311644856474  0.637024402540781  1.0000
  C   C16       1.0  0.951282065882744  0.28385100732734125  0.5374482495553548  1.0000
  C   C17       1.0  0.9801503260343363  0.21963545443661503  0.43272897773285735  1.0000
  C   C18       1.0  0.9722948928007848  0.07004962275360427  0.4237908524955327  1.0000
  C   C19       1.0  0.9386498627777135  0.9847250309724955  0.5252473297933544  1.0000
  C   C20       1.0  0.9103252126274152  0.047492261128569746  0.6326664784793532  1.0000
  C   C21       1.0  0.005447874795586616  0.0001169591720309171  0.312452587824084  1.0000
  F   F1        1.0  0.004783637536126539  0.09468473037847436  0.2011828481819371  1.0000
  F   F2        1.0  0.9632115516313209  0.8777145901031366  0.2842660748091992  1.0000
  F   F3        1.0  0.0802424284925154  0.9611886191176486  0.3466562874791008  1.0000
  H   H9        1.0  0.7858872202245166  0.27639303475849597  0.860048533648986  1.0000
  H   H10       1.0  0.9561201406581368  0.40035001637896794  0.5391855077352377  1.0000
  H   H11       1.0  0.008097466993315594  0.28746873526099437  0.35796424980339925  1.0000
  H   H12       1.0  0.936199033183762  0.8681673055496625  0.5221285165538965  1.0000
  H   H13       1.0  0.8746042086279179  0.9160716817384235  0.9441743328542083  1.0000
  C   C22       1.0  0.9125821783844281  0.6237826992522775  0.2536029360172014  1.0000
  C   C23       1.0  0.9000384408386775  0.47327254722690304  0.2625210977613375  1.0000
  C   C24       1.0  0.8938146197648532  0.39859351117304476  0.14998925841552335  1.0000
  C   C25       1.0  0.9000384747091194  0.4732726303793884  0.02741320116395185  1.0000
  C   C26       1.0  0.9125821768247087  0.6237826246768778  0.016087955314367575  1.0000
  C   C27       1.0  0.91879291410866  0.698304058827963  0.12983395102286321  1.0000
  Cl  Cl1       1.0  0.8781445141029622  0.2105705754067697  0.16263370404062005  1.0000
  H   H14       1.0  0.9173076300810244  0.6804772971761794  0.577546593509668  1.0000
  H   H15       1.0  0.8950495139276663  0.4134111455541294  0.3565932895091213  1.0000
  H   H16       1.0  0.8950495676355417  0.4134111275658203  0.9413923279046048  1.0000
  H   H17       1.0  0.9284669865916376  0.8143820039129812  0.12202766917905206  1.0000
  H   H18       1.0  0.9173074841973938  0.6804772773261176  0.6845189512118113  1.0000
  Zn  Zn1       1.0  0.8285377335155817  0.6197065871901077  0.6280051193234588  1.0000
  Zn  Zn2       1.0  0.9966192695534056  0.6278577202234177  0.6416845469915013  1.0000
  C   C28       1.0  0.9126110739945926  0.6180344328648204  0.8719913532988124  1.0000
  C   C29       1.0  0.9125477548219016  0.629531784126375  0.3976985804567974  1.0000
  C   C30       1.0  0.9111744792075636  0.8873117968326854  0.6283164222585325  1.0000
  C   C31       1.0  0.9139843014885934  0.36025268382265296  0.64137358495992  1.0000
  O   O1        1.0  0.9763223024527723  0.6345482471844921  0.45124969894175004  1.0000
  O   O2        1.0  0.9764065288726004  0.6192034026663344  0.8288222357691621  1.0000
  O   O3        1.0  0.975245600547137  0.8366482378480433  0.6320529272162969  1.0000
  O   O4        1.0  0.9774831733684136  0.4171034195431418  0.6480189054312837  1.0000
  O   O5        1.0  0.8476737723425862  0.8304608850903725  0.621670756208722  1.0000
  O   O6        1.0  0.8488346914303991  0.6130177834645092  0.8184399866237908  1.0000
  O   O7        1.0  0.8487504653294446  0.6283625777041564  0.440865889176018  1.0000
  O   O8        1.0  0.8499113362969204  0.4109177397424364  0.6376351930539292  1.0000
