data_image0
_chemical_formula_structural       NC9NC5H8C7F3H5C6ClH5Zn2C4O8
_chemical_formula_sum              "N2 C31 H18 F3 Cl1 Zn2 O8"
_cell_length_a       17.807436237873137
_cell_length_b       9.27228830945605
_cell_length_c       10.302974078461048
_cell_angle_alpha    85.26210322336898
_cell_angle_beta     89.39214410348855
_cell_angle_gamma    87.81380667828488

_space_group_name_H-M_alt    "P 1"
_space_group_IT_number       1

loop_
  _space_group_symop_operation_xyz
  'x, y, z'

loop_
  _atom_site_type_symbol
  _atom_site_label
  _atom_site_symmetry_multiplicity
  _atom_site_fract_x
  _atom_site_fract_y
  _atom_site_fract_z
  _atom_site_occupancy
  N   N1        1.0  0.6993652679348576  0.5426781418132214  0.5504620637515725  1.0000
  C   C1        1.0  0.6389817909577465  0.5035603338047205  0.5396229329749238  1.0000
  C   C2        1.0  0.5638713822593759  0.45490208852063385  0.5261402309088516  1.0000
  C   C3        1.0  0.546194128537349  0.37551585570009527  0.42153967466471354  1.0000
  C   C4        1.0  0.47326643744914804  0.3281485073506891  0.4083668099133737  1.0000
  C   C5        1.0  0.4169694706910379  0.3597477195010035  0.49976400389706255  1.0000
  C   C6        1.0  0.3394654681777408  0.3095361714325695  0.4858461160843941  1.0000
  C   C7        1.0  0.2768150401457371  0.4004184343843924  0.5113556058983018  1.0000
  C   C8        1.0  0.2037462214970008  0.3528253831009476  0.4981974629399091  1.0000
  C   C9        1.0  0.1400300978243184  0.4466994258493364  0.5240568811300221  1.0000
  N   N2        1.0  0.0888153565618231  0.522167661630176  0.5448471571824944  1.0000
  C   C10       1.0  0.1927457819292782  0.21406329129500778  0.45950581679912306  1.0000
  C   C11       1.0  0.2545389204661488  0.12316562980145762  0.433988011364713  1.0000
  C   C12       1.0  0.3274905949744601  0.1703200996503702  0.44694571378700854  1.0000
  C   C13       1.0  0.4353352621980157  0.43968350228664077  0.6045811725443202  1.0000
  C   C14       1.0  0.5083169287141776  0.4868392040029297  0.6175994180083464  1.0000
  H   H1        1.0  0.5887194728949904  0.35052116123063537  0.3499663359713696  1.0000
  H   H2        1.0  0.46066521080588785  0.268474380615908  0.32575006531586115  1.0000
  H   H3        1.0  0.2847473405799143  0.5087629091958643  0.5397213744210441  1.0000
  H   H4        1.0  0.1364781205302999  0.17622794741829306  0.44908964493255565  1.0000
  H   H5        1.0  0.24590352077349484  0.015732808892559236  0.40441800597331934  1.0000
  H   H6        1.0  0.3745126607016768  0.0972362269720437  0.42824204931362453  1.0000
  H   H7        1.0  0.3935299230352771  0.464078965380502  0.6774513573399141  1.0000
  H   H8        1.0  0.5214394279979836  0.547870175089098  0.6991685961853551  1.0000
  C   C15       1.0  0.8963051834592793  0.10848164987071329  0.5496235684223598  1.0000
  C   C16       1.0  0.9320097925070179  0.18861096483291373  0.4465657747299143  1.0000
  C   C17       1.0  0.9602932029894359  0.12150519207766597  0.3390885207898344  1.0000
  C   C18       1.0  0.9525969150422211  0.9727058272290547  0.33090087875690943  1.0000
  C   C19       1.0  0.9196335085245161  0.8907496938726824  0.43557169563258835  1.0000
  C   C20       1.0  0.8918826949055116  0.9563527189845364  0.5456968916588525  1.0000
  C   C21       1.0  0.9850782420619746  0.8994539678723863  0.2163952832173699  1.0000
  F   F1        1.0  0.9844274617597196  0.9940882408947327  0.10518900269862752  1.0000
  F   F2        1.0  0.9436975956686692  0.7812801965635476  0.1922438947090468  1.0000
  F   F3        1.0  0.058357513239070125  0.8530373793500404  0.24345334816820197  1.0000
  H   H9        1.0  0.7699657244938033  0.19771192120196712  0.7849673583916632  1.0000
  H   H10       1.0  0.936749851454059  0.3046255976267247  0.44784081857322167  1.0000
  H   H11       1.0  0.9876741554750399  0.1865404732466429  0.26165381155226664  1.0000
  H   H12       1.0  0.9172323309314018  0.7744373395369812  0.43268702688808314  1.0000
  H   H13       1.0  0.8568853721137484  0.8285084394752242  0.8606174175883965  1.0000
  C   C22       1.0  0.8940939362001084  0.532417195196089  0.16641772583855063  1.0000
  C   C23       1.0  0.8818043255298712  0.38316289160909234  0.1765342765280946  1.0000
  C   C24       1.0  0.8757065944828416  0.3091069693558701  0.0645970413300363  1.0000
  C   C25       1.0  0.881804358714123  0.3831629713705522  0.9414263766948339  1.0000
  C   C26       1.0  0.8940939346719876  0.5324171207768442  0.9289027452847272  1.0000
  C   C27       1.0  0.9001788469970817  0.6063167510444556  0.042055386829300545  1.0000
  Cl  Cl1       1.0  0.860353953609759  0.12265288638589555  0.07873855920573525  1.0000
  H   H14       1.0  0.8987236537289044  0.5886386924104006  0.4899099286465891  1.0000
  H   H15       1.0  0.8769164706002722  0.32380096914237866  0.27108309454757684  1.0000
  H   H16       1.0  0.8769165232200656  0.32380094577696816  0.8558821278119804  1.0000
  H   H17       1.0  0.9096569299032189  0.7214261515648093  0.0333248747488164  1.0000
  H   H18       1.0  0.8987235108007686  0.5886386871658524  0.596882300285992  1.0000
  Zn  Zn1       1.0  0.811752169827277  0.5367554081672636  0.5488492491470534  1.0000
  Zn  Zn2       1.0  0.9764284978536089  0.5280786273683964  0.5464706993597932  1.0000
  C   C28       1.0  0.8941222464065125  0.5266660358505504  0.7848033825251102  1.0000
  C   C29       1.0  0.8940602100335817  0.5381697264733882  0.31051665899625314  1.0000
  C   C30       1.0  0.8927147559708201  0.7960872281880134  0.5412656991995186  1.0000
  C   C31       1.0  0.8954676533238192  0.26874680261775885  0.5540544203819517  1.0000
  O   O1        1.0  0.9565427323436398  0.5368012372189745  0.35797495924417966  1.0000
  O   O2        1.0  0.9566252523982933  0.521447960156894  0.7355394493462781  1.0000
  O   O3        1.0  0.9554878436248749  0.7390090246537719  0.5388810522077001  1.0000
  O   O4        1.0  0.9576800848703169  0.3192401860101868  0.5546332598041785  1.0000
  O   O5        1.0  0.8305005266146119  0.7455938524880044  0.540686689507514  1.0000
  O   O6        1.0  0.831637926337528  0.5280345224718228  0.7373450093908314  1.0000
  O   O7        1.0  0.8315554065952878  0.5433877492234684  0.35977895863790743  1.0000
  O   O8        1.0  0.8326927591727492  0.3258266876891214  0.5564373565813321  1.0000
