data_image0
_chemical_formula_structural       NC8NC6H8C6BrH5C8H10Zn2C4O8
_chemical_formula_sum              "N2 C32 H23 Br1 Zn2 O8"
_cell_length_a       17.457602349358154
_cell_length_b       10.302969083221269
_cell_length_c       9.275657083861812
_cell_angle_alpha    85.85419780113547
_cell_angle_beta     92.37146316173272
_cell_angle_gamma    91.68807063265206

_space_group_name_H-M_alt    "P 1"
_space_group_IT_number       1

loop_
  _space_group_symop_operation_xyz
  'x, y, z'

loop_
  _atom_site_type_symbol
  _atom_site_label
  _atom_site_symmetry_multiplicity
  _atom_site_fract_x
  _atom_site_fract_y
  _atom_site_fract_z
  _atom_site_occupancy
  N   N1        1.0  0.7294603167957157  0.44562563330013005  0.4760561371611831  1.0000
  C   C1        1.0  0.6684367595759549  0.3996632532058084  0.4642775951135212  1.0000
  C   C2        1.0  0.5925208224855538  0.34249181168869636  0.44963567597094634  1.0000
  C   C3        1.0  0.533608552266739  0.383007936076845  0.5327374780988459  1.0000
  C   C4        1.0  0.4591275506544509  0.3279570834200849  0.5187773009651826  1.0000
  C   C5        1.0  0.3966017347075407  0.3707373134622307  0.6067852611979807  1.0000
  C   C6        1.0  0.3223407035153975  0.38892626306861366  0.5449135361071424  1.0000
  C   C7        1.0  0.2634278774913959  0.4292590510407377  0.628135116949589  1.0000
  C   C8        1.0  0.1877400390388186  0.44804279266375135  0.5638052540622671  1.0000
  N   N2        1.0  0.1268999326565194  0.4631385440415243  0.5120842118948559  1.0000
  C   C9        1.0  0.2782813152232402  0.45164844577355523  0.7737926423610926  1.0000
  C   C10       1.0  0.3517556570475877  0.43385025745101613  0.836094422173389  1.0000
  C   C11       1.0  0.4106545336079357  0.3936997100432069  0.7533807004137347  1.0000
  C   C12       1.0  0.4448548048087568  0.23170587967935807  0.42012544319498724  1.0000
  C   C13       1.0  0.5037533079810528  0.19147030649489327  0.3374674598419767  1.0000
  C   C14       1.0  0.5774467269764647  0.24663619523639557  0.3520378270614706  1.0000
  H   H1        1.0  0.5456112961743388  0.45850463656408835  0.606666763251922  1.0000
  H   H2        1.0  0.3105182932581221  0.37346052027776655  0.43171351895453247  1.0000
  H   H3        1.0  0.23311897395543954  0.4828097273482175  0.8390732238083434  1.0000
  H   H4        1.0  0.3630662682067181  0.45087132505145355  0.9488802924708064  1.0000
  H   H5        1.0  0.466903980898585  0.37893886505887653  0.804537554813429  1.0000
  H   H6        1.0  0.3884247106149092  0.18633279937677072  0.4083068280235542  1.0000
  H   H7        1.0  0.4922705119281922  0.1170838289991305  0.26220859184130263  1.0000
  H   H8        1.0  0.6226064940594791  0.21460800428875682  0.28732435818387647  1.0000
  C   C15       1.0  0.9281837536144915  0.07313475090023158  0.4940767793366627  1.0000
  C   C16       1.0  0.007579829480553579  0.07383180199782591  0.5255684636908167  1.0000
  C   C17       1.0  0.04696455740440242  0.9572397253823342  0.5411898472746817  1.0000
  C   C18       1.0  0.007579890956429525  0.8387494438440687  0.5255681957329152  1.0000
  C   C19       1.0  0.9281837658463391  0.8356197683549655  0.49407668487547673  1.0000
  C   C20       1.0  0.8888691293583989  0.9534298409260437  0.47848297973662723  1.0000
  Br  Br1       1.0  0.15495688587442102  0.9598421918452333  0.584024349244689  1.0000
  H   H9        1.0  0.8982998407291161  0.40017405113649107  0.4822229608419  1.0000
  H   H10       1.0  0.03918590524649335  0.16459277892134327  0.538104866351504  1.0000
  H   H11       1.0  0.039185998483338036  0.7495118458908109  0.5381042254489226  1.0000
  H   H12       1.0  0.8276358213055351  0.9519541544600515  0.4541955742396011  1.0000
  H   H13       1.0  0.8982996112732625  0.5071400586526684  0.4822250701980184  1.0000
  C   C21       1.0  0.9301372191227503  0.4525062307327228  0.07093393991994001  1.0000
  C   C22       1.0  0.969863016353412  0.5532233410452321  0.1394754682154533  1.0000
  C   C23       1.0  0.0028171949118351858  0.6591986813652  0.058724179349874284  1.0000
  C   C24       1.0  0.997183764325832  0.6636213383674034  0.9075746193325509  1.0000
  C   C25       1.0  0.9591143488760487  0.5635584848771305  0.8377306388462515  1.0000
  C   C26       1.0  0.9262302977448686  0.4562482908987804  0.9172195618230234  1.0000
  C   C27       1.0  0.04608856964679475  0.7652151335139199  0.13384663316492995  1.0000
  C   C28       1.0  0.13032485384647674  0.7318805746642307  0.15932730687480268  1.0000
  H   H14       1.0  0.8957135539258676  0.2438757271046843  0.36564049930049625  1.0000
  H   H15       1.0  0.973828176022754  0.5509911092184869  0.256559937863005  1.0000
  H   H16       1.0  0.02303790213914425  0.7441102951929166  0.8435320663772767  1.0000
  H   H17       1.0  0.9571408565413674  0.5685309609800249  0.7205774199587824  1.0000
  H   H18       1.0  0.835682627446367  0.30263171466420014  0.6411770012045119  1.0000
  H   H19       1.0  0.041888660170812164  0.8592805797975611  0.06762558873580393  1.0000
  H   H20       1.0  0.020581462224976255  0.778794756285357  0.23941089574520502  1.0000
  H   H21       1.0  0.13578428096748563  0.6397639190281772  0.22857040349300206  1.0000
  H   H22       1.0  0.15731276473952938  0.721121178555068  0.05459896111079132  1.0000
  H   H23       1.0  0.16116521997414002  0.8111732306879855  0.21468959751877792  1.0000
  Zn  Zn1       1.0  0.8441527663882634  0.45067603623492647  0.486461381106283  1.0000
  Zn  Zn2       1.0  0.012207414351623314  0.4580775488408684  0.5016907651300864  1.0000
  C   C29       1.0  0.9269670804162745  0.4503688659604188  0.7572532809784809  1.0000
  C   C30       1.0  0.9293949348222585  0.4583864386629608  0.23089917299080942  1.0000
  C   C31       1.0  0.9282063254260507  0.6914683191115061  0.4883343103215305  1.0000
  C   C32       1.0  0.9281556321124939  0.2172854235200854  0.49981821527400694  1.0000
  O   O1        1.0  0.9929216805080006  0.4631630616836173  0.2903644383789006  1.0000
  O   O2        1.0  0.9909899259297723  0.45120883850358906  0.7093463508847189  1.0000
  O   O3        1.0  0.99198976530146  0.6458996648025044  0.492192301521575  1.0000
  O   O4        1.0  0.9919217842894208  0.2684722416686014  0.5075183745045211  1.0000
  O   O5        1.0  0.8644383391016973  0.6402813408828008  0.4806337665272271  1.0000
  O   O6        1.0  0.8634385000812294  0.4455920740512793  0.6977877390595029  1.0000
  O   O7        1.0  0.8653702627083136  0.4575462443315954  0.27880409412698803  1.0000
  O   O8        1.0  0.8643703659878573  0.26285541550828695  0.4959581382855116  1.0000
