data_image0
_chemical_formula_structural       NC8NC6H8C8H10C7OH6Zn2C4O8
_chemical_formula_sum              "N2 C33 H24 O9 Zn2"
_cell_length_a       17.457602349358154
_cell_length_b       9.275653711864159
_cell_length_c       9.274081674992354
_cell_angle_alpha    86.25045921742758
_cell_angle_beta     92.53340075860572
_cell_angle_gamma    91.13236207428555

_space_group_name_H-M_alt    "P 1"
_space_group_IT_number       1

loop_
  _space_group_symop_operation_xyz
  'x, y, z'

loop_
  _atom_site_type_symbol
  _atom_site_label
  _atom_site_symmetry_multiplicity
  _atom_site_fract_x
  _atom_site_fract_y
  _atom_site_fract_z
  _atom_site_occupancy
  N   N1        1.0  0.7189404236750745  0.599164906762899  0.48038724683779854  1.0000
  C   C1        1.0  0.6581587164936803  0.548087798358839  0.46846899757768545  1.0000
  C   C2        1.0  0.5825436245568579  0.48455431098493174  0.45365330047191055  1.0000
  C   C3        1.0  0.5235299860713458  0.5298605103584415  0.5368806741953134  1.0000
  C   C4        1.0  0.44933888394545335  0.46868412780717383  0.5227531694391234  1.0000
  C   C5        1.0  0.3867064384601861  0.5165231249098641  0.6108937271331298  1.0000
  C   C6        1.0  0.3122473871620225  0.5364786833258053  0.5490750761042  1.0000
  C   C7        1.0  0.2532344140100277  0.5815817898073088  0.6324216768198412  1.0000
  C   C8        1.0  0.1773414112981499  0.6021882267065235  0.5681466090898009  1.0000
  N   N2        1.0  0.11633638917667519  0.6187487224340875  0.5164696029055957  1.0000
  C   C9        1.0  0.2681852034888885  0.607004159853632  0.7781519111098099  1.0000
  C   C10       1.0  0.3418560165985284  0.5874841236527257  0.8404018155917305  1.0000
  C   C11       1.0  0.40085479050056355  0.5425853222040813  0.7575636432364155  1.0000
  C   C12       1.0  0.4354588309829082  0.36143570390977886  0.4238062856249527  1.0000
  C   C13       1.0  0.4944577981135929  0.31644271497046295  0.34102359581076436  1.0000
  C   C14       1.0  0.5678616053040817  0.37774918216049413  0.3557616596322797  1.0000
  H   H1        1.0  0.5352194069688511  0.6139697643045399  0.6110412545975423  1.0000
  H   H2        1.0  0.30033837683361436  0.5188691733436452  0.43582441580190734  1.0000
  H   H3        1.0  0.2229470001100642  0.6418548145332112  0.8435291161417691  1.0000
  H   H4        1.0  0.3532437940765514  0.6068188910643815  0.9532430295696308  1.0000
  H   H5        1.0  0.4572663917210047  0.5263944860665597  0.8086774580130276  1.0000
  H   H6        1.0  0.379267192133429  0.3110127335365489  0.41184974812008934  1.0000
  H   H7        1.0  0.4832800010902689  0.23356098419444016  0.265536753504944  1.0000
  H   H8        1.0  0.613103009806459  0.34193820212556725  0.29094895836612933  1.0000
  C   C15       1.0  0.9197983750166953  0.1856620949336143  0.49727944056860696  1.0000
  C   C16       1.0  0.9022011979334983  0.26705297315787746  0.3671283731039727  1.0000
  C   C17       1.0  0.8776728712399057  0.199519133430893  0.2419264343008789  1.0000
  C   C18       1.0  0.8718853636075471  0.04868132982942508  0.24600661289400705  1.0000
  C   C19       1.0  0.8903186549923457  0.9661193861097902  0.37345575226648964  1.0000
  C   C20       1.0  0.9154857761282192  0.032240844743633756  0.49959047644483334  1.0000
  C   C21       1.0  0.8601389488680145  0.288216855722754  0.10299495970283212  1.0000
  C   C22       1.0  0.9321556995349851  0.31277655647402636  0.016776669998743943  1.0000
  H   H9        1.0  0.9887850769917623  0.45538960826933383  0.7033301147104241  1.0000
  H   H10       1.0  0.9058847761270901  0.384018512233115  0.3635795010386862  1.0000
  H   H11       1.0  0.8538168034136453  0.99470583781159  0.14981931038489704  1.0000
  H   H12       1.0  0.8867754134434594  0.8494657996480386  0.3722541815350038  1.0000
  H   H13       1.0  0.9219638106155127  0.7355753069783842  0.7378734879890352  1.0000
  H   H14       1.0  0.8156306836334508  0.23258341420431305  0.0362751515794042  1.0000
  H   H15       1.0  0.8367883972869339  0.3944576577952077  0.12642319990977757  1.0000
  H   H16       1.0  0.9766570823885384  0.3716974282420624  0.08032645734255639  1.0000
  H   H17       1.0  0.9552639841046906  0.20774399952851974  0.9892149151971998  1.0000
  H   H18       1.0  0.9180060864249454  0.3782399914113026  0.9148887272374284  1.0000
  C   C23       1.0  0.9189554300364386  0.605236603806385  0.07527242980780025  1.0000
  C   C24       1.0  0.980912025671543  0.6710392518343247  0.1496242502908618  1.0000
  C   C25       1.0  0.038472040769614635  0.7472619410499386  0.07460179374506337  1.0000
  C   C26       1.0  0.034057914974963355  0.7580721279898224  0.9231134990246526  1.0000
  C   C27       1.0  0.9737123458753663  0.6915267725855159  0.8477025037766257  1.0000
  C   C28       1.0  0.9163287331185912  0.6126663599545794  0.921597473976846  1.0000
  C   C29       1.0  0.10220198082688725  0.8160221710872897  0.15604263925081963  1.0000
  O   O1        1.0  0.15463134474985196  0.8857805545606028  0.0916777366381818  1.0000
  H   H19       1.0  0.737749523261442  0.5026463318105898  0.16988934319572158  1.0000
  H   H20       1.0  0.9834729716042124  0.6658134549024042  0.2668790318651537  1.0000
  H   H21       1.0  0.07767434777087989  0.8168489536610424  0.8626466092553602  1.0000
  H   H22       1.0  0.9729631614486736  0.6989393684193448  0.7305844968877881  1.0000
  H   H23       1.0  0.7955698619090094  0.537732548773423  0.6353284142591202  1.0000
  H   H24       1.0  0.10448413251348443  0.8069684899164478  0.27312778606097554  1.0000
  Zn  Zn1       1.0  0.8336203089944958  0.6048125803984272  0.4908081450386601  1.0000
  Zn  Zn2       1.0  0.001656513195805287  0.6130893339748491  0.506060470171515  1.0000
  C   C30       1.0  0.9168527724521938  0.6055194518413667  0.7616081210833174  1.0000
  C   C31       1.0  0.9184258749842354  0.6123843729176415  0.2352608070820923  1.0000
  C   C32       1.0  0.9163148303983512  0.8721688638002414  0.49341099605718575  1.0000
  C   C33       1.0  0.9189637682828365  0.3457332269735671  0.5034579990023396  1.0000
  O   O2        1.0  0.9820170472725834  0.6179179257665819  0.2947425287397827  1.0000
  O   O3        1.0  0.9807971978864998  0.606266672375408  0.7137021435028819  1.0000
  O   O4        1.0  0.9803619385896162  0.8215894155862449  0.4971309935681649  1.0000
  O   O5        1.0  0.9824522495129017  0.40259518909447944  0.5113135654522574  1.0000
  O   O6        1.0  0.8528245153349054  0.8153067224558501  0.4855550445454724  1.0000
  O   O7        1.0  0.8532597660445363  0.5999857104072654  0.702126122373629  1.0000
  O   O8        1.0  0.8544796211146248  0.611636898360266  0.28316477496586523  1.0000
  O   O9        1.0  0.8549148230690143  0.3963141523264826  0.499735919688137  1.0000
