data_image0
_chemical_formula_structural       NC8NC6H8C7OH6C9H8Zn2C4O8
_chemical_formula_sum              "N2 C34 H22 O9 Zn2"
_cell_length_a       17.457602349358154
_cell_length_b       9.274078303013075
_cell_length_c       9.275155815604963
_cell_angle_alpha    86.23195099776972
_cell_angle_beta     93.22066324705655
_cell_angle_gamma    91.09880916489897

_space_group_name_H-M_alt    "P 1"
_space_group_IT_number       1

loop_
  _space_group_symop_operation_xyz
  'x, y, z'

loop_
  _atom_site_type_symbol
  _atom_site_label
  _atom_site_symmetry_multiplicity
  _atom_site_fract_x
  _atom_site_fract_y
  _atom_site_fract_z
  _atom_site_occupancy
  N   N1        1.0  0.7087373916836232  0.5994416987023472  0.479402177376655  1.0000
  C   C1        1.0  0.6478957450270676  0.5483560517496029  0.4674859223058665  1.0000
  C   C2        1.0  0.5722061540330626  0.4848119434514515  0.45267271015780985  1.0000
  C   C3        1.0  0.5137093744527768  0.530125353523049  0.535933731338974  1.0000
  C   C4        1.0  0.439447421284847  0.46893874339355635  0.5218086868737122  1.0000
  C   C5        1.0  0.3773623913293572  0.5167853529995248  0.6099849000059949  1.0000
  C   C6        1.0  0.3025025115872166  0.5367445796201613  0.5481330663074913  1.0000
  C   C7        1.0  0.244007222361411  0.5818548620160213  0.6315134036280572  1.0000
  C   C8        1.0  0.1676975087936819  0.6024650889632326  0.5672038563933286  1.0000
  N   N2        1.0  0.10635745432513893  0.6190286306969042  0.5154991298412721  1.0000
  C   C9        1.0  0.2598800432003741  0.6072807832106839  0.7773107906071686  1.0000
  C   C10       1.0  0.3339542995518653  0.5877571499637635  0.8395940214339734  1.0000
  C   C11       1.0  0.3924385698462872  0.5428512044515563  0.7567223290946925  1.0000
  C   C12       1.0  0.4249697398816529  0.36167276025783646  0.42282995687161296  1.0000
  C   C13       1.0  0.4834545872283139  0.3166726111225142  0.34001378850905395  1.0000
  C   C14       1.0  0.5569331010105751  0.37798932473715796  0.35474966978438194  1.0000
  H   H1        1.0  0.5258455408243845  0.6142483954330094  0.6101176110451945  1.0000
  H   H2        1.0  0.28987628962013  0.5191326713441087  0.4348298919409632  1.0000
  H   H3        1.0  0.21504807867351222  0.6421369777580479  0.84271453940025  1.0000
  H   H4        1.0  0.3460561309611422  0.6070946081386124  0.9524872862970954  1.0000
  H   H5        1.0  0.44918149241439287  0.5266573873497378  0.807863533230802  1.0000
  H   H6        1.0  0.3687177107110721  0.3112413616422547  0.4108752949501373  1.0000
  H   H7        1.0  0.47182119298640446  0.23377730564753496  0.26450281286059396  1.0000
  H   H8        1.0  0.601772172488709  0.3421726403557728  0.28991084664976463  1.0000
  C   C15       1.0  0.9098336782601344  0.1858691950432254  0.4963657821094456  1.0000
  C   C16       1.0  0.8945726887291624  0.2674612081112999  0.36487419849199587  1.0000
  C   C17       1.0  0.8726988038428695  0.20020335428366987  0.23770533801498983  1.0000
  C   C18       1.0  0.8658817747467696  0.04926560926065493  0.24192966594797904  1.0000
  C   C19       1.0  0.881997360009187  0.9666339935751808  0.37081646532515644  1.0000
  C   C20       1.0  0.9052686141995853  0.0325904584286294  0.49854867019271154  1.0000
  C   C21       1.0  0.8564532068774766  0.28916555452080916  0.10209363904311597  1.0000
  O   O1        1.0  0.8363608938739988  0.23189593334851355  0.9861506214579845  1.0000
  H   H9        1.0  0.9086359448900021  0.26549417894533356  0.8511164017407307  1.0000
  H   H10       1.0  0.897994291304687  0.3844685977624447  0.36207621853822136  1.0000
  H   H11       1.0  0.8487872275070504  0.9947525127192951  0.14522855574541582  1.0000
  H   H12       1.0  0.8779955935917493  0.8499930781477258  0.3696821837336137  1.0000
  H   H13       1.0  0.9078190276969126  0.7358786002003193  0.7371399433175021  1.0000
  H   H14       1.0  0.8617447168616286  0.4057277568824611  0.10105953852380956  1.0000
  C   C22       1.0  0.9061650220631235  0.6055164425716764  0.07408895771347468  1.0000
  C   C23       1.0  0.8457656128317088  0.6728085342536785  0.13663610179726526  1.0000
  C   C24       1.0  0.79045355548195  0.7499353427506925  0.05057483922502737  1.0000
  C   C25       1.0  0.7945141142517224  0.7613915823701336  0.9003961882098488  1.0000
  C   C26       1.0  0.8533737439909342  0.6932488371292715  0.8359985182297747  1.0000
  C   C27       1.0  0.908937241158535  0.6129431863056236  0.9208254086191272  1.0000
  C   C28       1.0  0.7376330042198743  0.8418102080358909  0.8118901965020004  1.0000
  C   C29       1.0  0.6900053020185557  0.9091499459620724  0.7377520887199429  1.0000
  C   C30       1.0  0.6322176456915954  0.99085535707807  0.6477865997367851  1.0000
  H   H15       1.0  0.08487636438984736  0.4979704468054651  0.20291387221252877  1.0000
  H   H16       1.0  0.8423401802086291  0.6686423199596361  0.2531044116845307  1.0000
  H   H17       1.0  0.7448851462893369  0.8018927428358542  0.10141727202328177  1.0000
  H   H18       1.0  0.8547547951091718  0.7000979862915433  0.7189983928469577  1.0000
  H   H19       1.0  0.028212125241456665  0.5353066782564255  0.6578149959830117  1.0000
  H   H20       1.0  0.6477862761501157  0.9957656411324702  0.533213677632757  1.0000
  H   H21       1.0  0.5753517524381433  0.9367017853116659  0.6574929724535337  1.0000
  H   H22       1.0  0.629675727859829  0.10208226539656762  0.6844020410791196  1.0000
  Zn  Zn1       1.0  0.8234820008266314  0.6050902709615325  0.4898272924123599  1.0000
  Zn  Zn2       1.0  0.9916129333063388  0.6133683415831792  0.5050857877973196  1.0000
  C   C31       1.0  0.9084424976891224  0.6057959079535491  0.7607591630789898  1.0000
  C   C32       1.0  0.906654263084226  0.6126646152969173  0.23415422994659774  1.0000
  C   C33       1.0  0.9061087385834341  0.8724915470380732  0.4923905643002149  1.0000
  C   C34       1.0  0.9089879744089532  0.3459672419349671  0.5025228959170227  1.0000
  O   O2        1.0  0.9706233034050986  0.6181988023556833  0.293664100785868  1.0000
  O   O3        1.0  0.9720809493404448  0.6065434937030376  0.7128297193586008  1.0000
  O   O4        1.0  0.9701955541368676  0.8219035658904461  0.49612010289685293  1.0000
  O   O5        1.0  0.9725086408274571  0.4028387367086761  0.5103736039691833  1.0000
  O   O6        1.0  0.8425862359306439  0.8156198730126394  0.48453947102594097  1.0000
  O   O7        1.0  0.844471621540313  0.6002615322792608  0.7012490150814847  1.0000
  O   O8        1.0  0.8430139702518192  0.6119167754913775  0.2820816630295002  1.0000
  O   O9        1.0  0.8448993080805273  0.39655670048057323  0.49879127427669334  1.0000
