data_image0
_chemical_formula_structural       NC9NC5H8C6NH7C6FH5Zn2C4O8
_chemical_formula_sum              "N3 C30 H20 F1 Zn2 O8"
_cell_length_a       17.807436237873137
_cell_length_b       9.274771166103582
_cell_length_c       9.275646106892307
_cell_angle_alpha    84.84724178978938
_cell_angle_beta     89.39821068290672
_cell_angle_gamma    88.98784114054227

_space_group_name_H-M_alt    "P 1"
_space_group_IT_number       1

loop_
  _space_group_symop_operation_xyz
  'x, y, z'

loop_
  _atom_site_type_symbol
  _atom_site_label
  _atom_site_symmetry_multiplicity
  _atom_site_fract_x
  _atom_site_fract_y
  _atom_site_fract_z
  _atom_site_occupancy
  N   N1        1.0  0.7155643427380093  0.5581087877055408  0.3934377506516551  1.0000
  C   C1        1.0  0.6547622593413639  0.5191637699138876  0.3812613616089904  1.0000
  C   C2        1.0  0.5791311503536342  0.4707204568329397  0.36611525562146463  1.0000
  C   C3        1.0  0.5605907550979727  0.39266384818995625  0.24956960700110464  1.0000
  C   C4        1.0  0.4871561699431384  0.34550629708974245  0.23477212002041958  1.0000
  C   C5        1.0  0.4312109738069086  0.3759865193609069  0.33648502474525865  1.0000
  C   C6        1.0  0.3531696480546604  0.3259968213791713  0.3208500983166127  1.0000
  C   C7        1.0  0.2914918207111135  0.41647376633661404  0.3495029762508919  1.0000
  C   C8        1.0  0.2179137054449109  0.3690905936177751  0.33472112959372957  1.0000
  C   C9        1.0  0.15520211904793468  0.46255178068113634  0.36377267416320946  1.0000
  N   N2        1.0  0.1047949564372679  0.5376880961020787  0.3871293211145832  1.0000
  C   C10       1.0  0.2054283088548647  0.2309443079651996  0.29125878472888833  1.0000
  C   C11       1.0  0.2662486812534418  0.14045208046832913  0.26259661229506914  1.0000
  C   C12       1.0  0.3397049460358978  0.18739954428293593  0.27715420637172894  1.0000
  C   C13       1.0  0.45044579828159725  0.4545894880202834  0.4532732623582931  1.0000
  C   C14       1.0  0.5239320781775334  0.5015374647904278  0.4678981693503397  1.0000
  H   H1        1.0  0.6028379708852527  0.3685457196077695  0.16991721048943464  1.0000
  H   H2        1.0  0.4739054677485757  0.28687891739712423  0.14273052084784177  1.0000
  H   H3        1.0  0.3005832612285302  0.5243592825834626  0.3813875547078571  1.0000
  H   H4        1.0  0.1487557760494793  0.19327528826651763  0.279556750891889  1.0000
  H   H5        1.0  0.2564636571076022  0.0334914567626341  0.2293761542767474  1.0000
  H   H6        1.0  0.385945183632373  0.11462016064540981  0.2561250343229202  1.0000
  H   H7        1.0  0.4089124163422173  0.47809369497811804  0.5343655029776466  1.0000
  H   H8        1.0  0.5377183381936267  0.5615325661866444  0.5587795012645782  1.0000
  C   C15       1.0  0.9078775396184172  0.12441430630647599  0.391107590703075  1.0000
  C   C16       1.0  0.8905757756499764  0.210005697271882  0.2623152329576959  1.0000
  C   C17       1.0  0.8802861870560914  0.1468797865278737  0.13259031588553727  1.0000
  C   C18       1.0  0.8873375973425511  0.9967929752259401  0.13071630306633608  1.0000
  C   C19       1.0  0.90325027422044  0.9099739207878347  0.25775809166130936  1.0000
  C   C20       1.0  0.9124888854676061  0.9713710419368241  0.38947194572493293  1.0000
  N   N3        1.0  0.8634456553270261  0.23556158845107045  0.002371898239607484  1.0000
  H   H9        1.0  0.9924489918658351  0.19627280721802465  0.7056176992348608  1.0000
  H   H10       1.0  0.8867887916606166  0.32680299219072895  0.2618221791012181  1.0000
  H   H11       1.0  0.8797762670515014  0.9467670230262145  0.030900306144817646  1.0000
  H   H12       1.0  0.9065595554597051  0.7936803198812314  0.25357077717574317  1.0000
  H   H13       1.0  0.9664073963090933  0.6691866544380144  0.6035088481949327  1.0000
  H   H14       1.0  0.8582709861349821  0.3479074736734471  0.002408886067104099  1.0000
  H   H15       1.0  0.8559553819727449  0.18952383119465566  0.9049284090470624  1.0000
  C   C21       1.0  0.9101203724641126  0.5524109072395091  0.9664420095538073  1.0000
  C   C22       1.0  0.978970468090116  0.5638752487681731  0.03735921017874366  1.0000
  C   C23       1.0  0.04681589366501737  0.5618475935451461  0.9608109790964976  1.0000
  C   C24       1.0  0.047001953054031764  0.5481752457441889  0.8124568819103155  1.0000
  C   C25       1.0  0.9793418575644046  0.5390536678905811  0.7395840040761765  1.0000
  C   C26       1.0  0.9102460124777998  0.5433744262410489  0.8141374935087655  1.0000
  F   F1        1.0  0.11265829017846052  0.5714167180565191  0.031155070082183878  1.0000
  H   H16       1.0  0.7353285512599258  0.4443870656450275  0.08264374624882764  1.0000
  H   H17       1.0  0.9803429098666961  0.5709770799732687  0.1532510009139294  1.0000
  H   H18       1.0  0.09967231044124669  0.5460154092092624  0.7532867634092724  1.0000
  H   H19       1.0  0.9810170010348183  0.5320708070497862  0.623636632520558  1.0000
  H   H20       1.0  0.7919464763927764  0.47661266726054596  0.5413434972068409  1.0000
  Zn  Zn1       1.0  0.8278878691015473  0.5522118802748743  0.39162562897114706  1.0000
  Zn  Zn2       1.0  0.9924713496332557  0.5435731218254924  0.38895333132504906  1.0000
  C   C27       1.0  0.9101893313155728  0.5393375711227517  0.6539160199255591  1.0000
  C   C28       1.0  0.9101716945935617  0.5564491547065844  0.12666304933951666  1.0000
  C   C29       1.0  0.9116125152654515  0.8113396756948388  0.3840295465053598  1.0000
  C   C30       1.0  0.9087484450609049  0.2844453196535379  0.39654960396844907  1.0000
  O   O1        1.0  0.9726474576426084  0.5545197722208073  0.17942058304919994  1.0000
  O   O2        1.0  0.9726286158027361  0.534709252347531  0.5991298607493418  1.0000
  O   O3        1.0  0.9737770130919289  0.754354419920938  0.38119463474616877  1.0000
  O   O4        1.0  0.9714990042323465  0.3348746190650169  0.3973557017235656  1.0000
  O   O5        1.0  0.8488601583381997  0.7609103859849848  0.3832232594769591  1.0000
  O   O6        1.0  0.8477117704675285  0.5412669518421724  0.6011584051757286  1.0000
  O   O7        1.0  0.8477306118264852  0.5610774399578236  0.1814473922543125  1.0000
  O   O8        1.0  0.8465821583730354  0.34143227533405196  0.39938261916181483  1.0000
