data_image0
_chemical_formula_structural       NC8NC6H8C7OH6C6NCOH7Zn2C4O8
_chemical_formula_sum              "N3 C32 H21 O10 Zn2"
_cell_length_a       17.457602349358154
_cell_length_b       9.274078303013075
_cell_length_c       10.29962270195845
_cell_angle_alpha    85.7553890900743
_cell_angle_beta     92.8939802036364
_cell_angle_gamma    91.09880916489897

_space_group_name_H-M_alt    "P 1"
_space_group_IT_number       1

loop_
  _space_group_symop_operation_xyz
  'x, y, z'

loop_
  _atom_site_type_symbol
  _atom_site_label
  _atom_site_symmetry_multiplicity
  _atom_site_fract_x
  _atom_site_fract_y
  _atom_site_fract_z
  _atom_site_occupancy
  N   N1        1.0  0.7134564413759507  0.6122614832806825  0.6302707539184356  1.0000
  C   C1        1.0  0.652651775832342  0.5612762993305251  0.6195367894004093  1.0000
  C   C2        1.0  0.5770081564181917  0.4978570775643849  0.6061932940949908  1.0000
  C   C3        1.0  0.5182529831387027  0.5424685345360674  0.6811934381657658  1.0000
  C   C4        1.0  0.444034865879089  0.4814010091668641  0.668469832871571  1.0000
  C   C5        1.0  0.38167618833232847  0.5285042269038775  0.7478975001607711  1.0000
  C   C6        1.0  0.3070082606451244  0.5489849110539096  0.6921823963508404  1.0000
  C   C7        1.0  0.24825420743233637  0.5933922344249603  0.7672900184169382  1.0000
  C   C8        1.0  0.1721440732304177  0.6145446392772129  0.7093610471011014  1.0000
  N   N2        1.0  0.11096448010825921  0.6315440907867742  0.6627862887624238  1.0000
  C   C9        1.0  0.2636745581283534  0.6175889738692955  0.8986218814358082  1.0000
  C   C10       1.0  0.3375555236195675  0.5975402460903674  0.9547255806090345  1.0000
  C   C11       1.0  0.3962969793633029  0.5533329713427935  0.880076137488331  1.0000
  C   C12       1.0  0.4298643567856366  0.3749694912510635  0.5793114379253035  1.0000
  C   C13       1.0  0.4886062172675373  0.33066754477144467  0.5047120098800155  1.0000
  C   C14       1.0  0.5620389994599171  0.39186002381155993  0.5179858468205294  1.0000
  H   H1        1.0  0.5301589259696118  0.6259661504833767  0.7480170440592071  1.0000
  H   H2        1.0  0.2947336657172057  0.5323282338493545  0.5901207799952615  1.0000
  H   H3        1.0  0.21863961847156102  0.6518937655686032  0.9575364913296334  1.0000
  H   H4        1.0  0.3493070001099486  0.6159259290394739  0.05641795729669563  1.0000
  H   H5        1.0  0.4528811894302769  0.5367079953833549  0.9261432842005408  1.0000
  H   H6        1.0  0.3736494279204903  0.3246388794367385  0.5685428771545056  1.0000
  H   H7        1.0  0.4772071650989226  0.24840885367714494  0.43669297801831575  1.0000
  H   H8        1.0  0.6070792928678813  0.35658997952956994  0.4595801125707084  1.0000
  C   C15       1.0  0.9145000828069118  0.1985459636609226  0.645551287124372  1.0000
  C   C16       1.0  0.8996471665402712  0.2812465497854366  0.5271058540093378  1.0000
  C   C17       1.0  0.8781679397042395  0.21506082520337833  0.412554258054983  1.0000
  C   C18       1.0  0.8713378007554644  0.06408746591518177  0.4163594624481288  1.0000
  C   C19       1.0  0.8870533964862012  0.980369237465686  0.5324585492113856  1.0000
  C   C20       1.0  0.9099282443335729  0.045248823656180104  0.647517596429888  1.0000
  C   C21       1.0  0.8623432024407269  0.30516633417163397  0.29039749350554755  1.0000
  O   O1        1.0  0.8426107090117103  0.2488741999368369  0.1859579502531945  1.0000
  H   H9        1.0  0.9122014102025409  0.27518013273017905  0.9651047492858718  1.0000
  H   H10       1.0  0.9030774524153794  0.3982775285143294  0.5245854801697758  1.0000
  H   H11       1.0  0.8545433574206436  0.010389632543898353  0.3292527095629403  1.0000
  H   H12       1.0  0.8830551502179549  0.8637378848861046  0.5314368072056346  1.0000
  H   H13       1.0  0.9117382095300541  0.746525461348209  0.8624366498420875  1.0000
  H   H14       1.0  0.8676379216703908  0.4217372547792888  0.2894659929446437  1.0000
  C   C22       1.0  0.9121419278407951  0.6217533227722247  0.265171342005325  1.0000
  C   C23       1.0  0.8317117431644446  0.6289763188009914  0.25652948031917444  1.0000
  C   C24       1.0  0.7913193707664034  0.6349827190551236  0.13523019653972246  1.0000
  C   C25       1.0  0.8318796725115819  0.6292935459703084  0.0213718782083967  1.0000
  C   C26       1.0  0.9122863846359508  0.6220414804612417  0.027897461086009434  1.0000
  C   C27       1.0  0.951978628867576  0.6188920745262587  0.15026677979870695  1.0000
  N   N3        1.0  0.7089277173756439  0.6401307764897592  0.1303985930244722  1.0000
  C   C28       1.0  0.6635046663960804  0.71663558997707  0.0288270247383291  1.0000
  O   O2        1.0  0.6939526007471909  0.8014692605276004  0.9444380011541424  1.0000
  H   H15       1.0  0.06380723051895276  0.6065824630384173  0.4888231371781053  1.0000
  H   H16       1.0  0.8000212660492867  0.6311914742314002  0.3441032794863308  1.0000
  H   H17       1.0  0.8007503234614735  0.6275112941301295  0.9279725674693449  1.0000
  H   H18       1.0  0.013982310525132435  0.6133426403574374  0.15605141661071742  1.0000
  H   H19       1.0  0.9430851099019059  0.617067628917179  0.7030961449510986  1.0000
  H   H20       1.0  0.680045139851823  0.5938929575039389  0.2100094645247914  1.0000
  H   H21       1.0  0.6016959379336623  0.7046434722107799  0.02664114967025677  1.0000
  Zn  Zn1       1.0  0.8281686970358944  0.6178221639705299  0.6396615242758035  1.0000
  Zn  Zn2       1.0  0.9962522760360158  0.6259715939872026  0.6534061233203572  1.0000
  C   C29       1.0  0.9122883792254397  0.6162436412947656  0.88371245044867  1.0000
  C   C30       1.0  0.9121344195160507  0.6275520247314472  0.40935547892686275  1.0000
  C   C31       1.0  0.9107874798902017  0.8852018297350412  0.6419704769904646  1.0000
  C   C32       1.0  0.9136352708618038  0.3585921014472697  0.6510975129101895  1.0000
  O   O3        1.0  0.9759187758701987  0.6325844987711013  0.4629609815169289  1.0000
  O   O4        1.0  0.9760755759448378  0.6173953083432753  0.8405384041390569  1.0000
  O   O5        1.0  0.9748627211287803  0.8345824057688895  0.64532998337289  1.0000
  O   O6        1.0  0.9771315732565885  0.4153974088409109  0.6581693002437656  1.0000
  O   O7        1.0  0.847289342456636  0.8283963463373878  0.6348983426552108  1.0000
  O   O8        1.0  0.8485021879034924  0.6112109809762423  0.8301066981990719  1.0000
  O   O9        1.0  0.8483453878554152  0.6264001205780745  0.4525277140876445  1.0000
  O   O10       1.0  0.8495581853127869  0.4092130203730273  0.6477361301566271  1.0000
