data_image0
_chemical_formula_structural       NC9NC5H8C7F3H5C7NH5Zn2C4O8
_chemical_formula_sum              "N3 C32 H18 F3 Zn2 O8"
_cell_length_a       17.807436237873137
_cell_length_b       9.27228830945605
_cell_length_c       10.302823150593486
_cell_angle_alpha    85.26210332699969
_cell_angle_beta     89.3921433004221
_cell_angle_gamma    87.81380667828488

_space_group_name_H-M_alt    "P 1"
_space_group_IT_number       1

loop_
  _space_group_symop_operation_xyz
  'x, y, z'

loop_
  _atom_site_type_symbol
  _atom_site_label
  _atom_site_symmetry_multiplicity
  _atom_site_fract_x
  _atom_site_fract_y
  _atom_site_fract_z
  _atom_site_occupancy
  N   N1        1.0  0.6993652797637206  0.542678138037519  0.550440829279288  1.0000
  C   C1        1.0  0.6389818028750618  0.5035603300007847  0.5396015397187841  1.0000
  C   C2        1.0  0.5638713942867158  0.45490208468157856  0.5261186401428324  1.0000
  C   C3        1.0  0.5461941414182752  0.37551585158858014  0.42151655159135903  1.0000
  C   C4        1.0  0.4732664504375705  0.3281485032048621  0.4083434938689865  1.0000
  C   C5        1.0  0.4169694829336194  0.3597477155932447  0.4997420267422168  1.0000
  C   C6        1.0  0.3394654805338983  0.3095361674885575  0.48582393504457566  1.0000
  C   C7        1.0  0.276815052293726  0.4004184305068266  0.5113337985503619  1.0000
  C   C8        1.0  0.2037462337523659  0.3528253791891083  0.4981754628365984  1.0000
  C   C9        1.0  0.1400301098686594  0.44669942200485435  0.5240352598447373  1.0000
  N   N2        1.0  0.0888153684365063  0.5221676578398482  0.5448258404567035  1.0000
  C   C10       1.0  0.1927457945003841  0.21406328728238533  0.45948324989678846  1.0000
  C   C11       1.0  0.254538933245491  0.12316562572236767  0.4339650706486833  1.0000
  C   C12       1.0  0.3274906076480619  0.17032009560503236  0.4469229628900695  1.0000
  C   C13       1.0  0.4353352735852432  0.4396834986519056  0.6045607308699932  1.0000
  C   C14       1.0  0.5083169399951706  0.4868392004021038  0.6175791670400139  1.0000
  H   H1        1.0  0.5887194863599862  0.3505211569326889  0.34994216441074255  1.0000
  H   H2        1.0  0.4606652244684991  0.2684743762548838  0.32572553900789347  1.0000
  H   H3        1.0  0.2847473524964261  0.5087629053921845  0.5396999826069859  1.0000
  H   H4        1.0  0.1364781331864063  0.17622794337853942  0.4490669254423465  1.0000
  H   H5        1.0  0.2459035337941413  0.01573280473644645  0.40439463208238347  1.0000
  H   H6        1.0  0.3745126735279087  0.09723622287798683  0.428219024424239  1.0000
  H   H7        1.0  0.3935299338278522  0.4640789619355765  0.6774319831505291  1.0000
  H   H8        1.0  0.5214394386133364  0.5478701717007406  0.6991495401346646  1.0000
  C   C15       1.0  0.8963051952949852  0.1084816460928264  0.5496023216668471  1.0000
  C   C16       1.0  0.9320098051837199  0.18861096078658623  0.4465430182671981  1.0000
  C   C17       1.0  0.9602932165431994  0.12150518775138552  0.33906418987865905  1.0000
  C   C18       1.0  0.9525969286627994  0.9727058228814472  0.3308764279038867  1.0000
  C   C19       1.0  0.9196335212909347  0.8907496897977176  0.4355487781161578  1.0000
  C   C20       1.0  0.8918827067732608  0.9563527151964217  0.5456755873809338  1.0000
  C   C21       1.0  0.9850782566169687  0.899453963226519  0.21636915495678588  1.0000
  F   F1        1.0  0.9844274772222055  0.9940882359591993  0.10516124536258276  1.0000
  F   F2        1.0  0.9436976104207492  0.7812801918547715  0.19221741265158943  1.0000
  F   F3        1.0  0.05835752757325885  0.8530373747746529  0.24342761628477727  1.0000
  H   H9        1.0  0.7699657344090006  0.1977119180370952  0.7849495592183493  1.0000
  H   H10       1.0  0.9367498641203562  0.3046255935837183  0.4478180807887904  1.0000
  H   H11       1.0  0.9876741696607046  0.18654046871866314  0.26162834628982923  1.0000
  H   H12       1.0  0.9172323437213609  0.7744373354545024  0.43266406711376026  1.0000
  H   H13       1.0  0.8568853814116083  0.8285084365074026  0.8606007266227702  1.0000
  C   C22       1.0  0.8940939511629411  0.5324171904200417  0.16639086545014115  1.0000
  C   C23       1.0  0.8152916305811547  0.5470280947035249  0.16564830417516796  1.0000
  C   C24       1.0  0.7760867339048947  0.5542970388017794  0.04817636574124484  1.0000
  C   C25       1.0  0.8152916164604701  0.547028001205575  0.9303473109738798  1.0000
  C   C26       1.0  0.894093950753362  0.5324171829436357  0.9288870321062723  1.0000
  C   C27       1.0  0.9330833771248075  0.5251880379519087  0.0474613694076933  1.0000
  C   C28       1.0  0.6953028302322374  0.5692751223285066  0.04854422786590473  1.0000
  N   N3        1.0  0.6303789660697965  0.5813127841409413  0.04883983331909181  1.0000
  H   H14       1.0  0.9239426299469946  0.5268832440448461  0.49399435697279004  1.0000
  H   H15       1.0  0.7842129985092677  0.5527904479909422  0.2562140859004367  1.0000
  H   H16       1.0  0.7842130288674797  0.552790340126897  0.8400645494652812  1.0000
  H   H17       1.0  0.9938528881372118  0.5139206594635517  0.04718466281494815  1.0000
  H   H18       1.0  0.9239426059780247  0.5268830136244633  0.6010116581014815  1.0000
  Zn  Zn1       1.0  0.8117521816693014  0.5367554043873604  0.5488279910484353  1.0000
  Zn  Zn2       1.0  0.9764285097150431  0.5280786235822972  0.5464494064174856  1.0000
  C   C29       1.0  0.8941222563230482  0.5266660326852515  0.7847855809496915  1.0000
  C   C30       1.0  0.8940602238205041  0.5381697220726842  0.3104919095321086  1.0000
  C   C31       1.0  0.8927147678747296  0.7960872243883563  0.5412443300084777  1.0000
  C   C32       1.0  0.8954676651233673  0.2687467988514134  0.5540332385345732  1.0000
  O   O1        1.0  0.956542745743282  0.5368012329418888  0.3579509050029308  1.0000
  O   O2        1.0  0.956625262716844  0.5214479568632739  0.7355209260970097  1.0000
  O   O3        1.0  0.9554878555482441  0.7390090208479041  0.5388596480836512  1.0000
  O   O4        1.0  0.9576800966651413  0.3192401822453492  0.5546120864362949  1.0000
  O   O5        1.0  0.8305005385232465  0.7455938486868392  0.540665311834484  1.0000
  O   O6        1.0  0.8316379366413447  0.5280345191829059  0.7373265125914497  1.0000
  O   O7        1.0  0.8315554199802084  0.5433877449510816  0.35975493082368315  1.0000
  O   O8        1.0  0.8326927709528513  0.32582668392898295  0.5564162096418999  1.0000
