data_image0
_chemical_formula_structural       NC8NC6H8C8H10C6SCH8Zn2C4O8
_chemical_formula_sum              "N2 C33 H26 S1 Zn2 O8"
_cell_length_a       17.457602349358154
_cell_length_b       9.275653711864159
_cell_length_c       10.302812801239593
_cell_angle_alpha    85.74330636578323
_cell_angle_beta     92.87590592568559
_cell_angle_gamma    91.13236207428555

_space_group_name_H-M_alt    "P 1"
_space_group_IT_number       1

loop_
  _space_group_symop_operation_xyz
  'x, y, z'

loop_
  _atom_site_type_symbol
  _atom_site_label
  _atom_site_symmetry_multiplicity
  _atom_site_fract_x
  _atom_site_fract_y
  _atom_site_fract_z
  _atom_site_occupancy
  N   N1        1.0  0.7142241516459683  0.6125054054448626  0.6309042977302315  1.0000
  C   C1        1.0  0.6534054549713599  0.5615329259261654  0.6201665464138875  1.0000
  C   C2        1.0  0.5777443810185889  0.49812950378585175  0.6068183383316395  1.0000
  C   C3        1.0  0.5189890471135897  0.5427050599957328  0.6818020731277556  1.0000
  C   C4        1.0  0.44475409884638  0.4816527011196994  0.6690738922111066  1.0000
  C   C5        1.0  0.3823952065055024  0.5287179228040815  0.7484841620205787  1.0000
  C   C6        1.0  0.3077442947651847  0.5492161797666466  0.6927886242806502  1.0000
  C   C7        1.0  0.24898999622674403  0.5935875964050115  0.7678797766818946  1.0000
  C   C8        1.0  0.1728975093347859  0.614758296439391  0.7099711293576492  1.0000
  N   N2        1.0  0.1117321023927  0.6317724584259761  0.6634127104935423  1.0000
  C   C9        1.0  0.2643930742418432  0.6177306181473525  0.8991754880675613  1.0000
  C   C10       1.0  0.3382570862323898  0.5976640974773166  0.9552595637740546  1.0000
  C   C11       1.0  0.3969987634797617  0.5534925224400216  0.8806264801022181  1.0000
  C   C12       1.0  0.43056695421226987  0.37527292008566593  0.5799276586716282  1.0000
  C   C13       1.0  0.48930899688397483  0.3310066704831036  0.5053445620168457  1.0000
  C   C14       1.0  0.5627585451476548  0.3921837539728623  0.5186228263613806  1.0000
  H   H1        1.0  0.5309086328805893  0.6261632670727848  0.7486170769471434  1.0000
  H   H2        1.0  0.2954837995467279  0.5326008837915424  0.5907553977389322  1.0000
  H   H3        1.0  0.2193577756377989  0.6520073341601593  0.958077106423558  1.0000
  H   H4        1.0  0.3499950778423401  0.6160082453622471  0.05692389949021892  1.0000
  H   H5        1.0  0.45356900159926167  0.5368529642335138  0.9266774914481353  1.0000
  H   H6        1.0  0.3743382070381325  0.3249549147257216  0.5691554115462525  1.0000
  H   H7        1.0  0.4778969188030646  0.24878762967081713  0.43733466201847215  1.0000
  H   H8        1.0  0.6077987968698412  0.35694175689363705  0.46022979789321994  1.0000
  C   C15       1.0  0.9151345296210436  0.19885429906636953  0.6461233262561716  1.0000
  C   C16       1.0  0.8971334155231274  0.28138775795163107  0.5288636712941726  1.0000
  C   C17       1.0  0.8722165119366797  0.21495305107681917  0.4160629357288388  1.0000
  C   C18       1.0  0.866441667551673  0.06407942807529032  0.4197389742226727  1.0000
  C   C19       1.0  0.8852705102438065  0.9803986235983485  0.5345643260169015  1.0000
  C   C20       1.0  0.910829103266385  0.045412760568729116  0.6482054549296437  1.0000
  C   C21       1.0  0.8542514016675785  0.3048704361741559  0.2908925695376008  1.0000
  C   C22       1.0  0.9260005651434821  0.330187036982871  0.2132141678228996  1.0000
  H   H9        1.0  0.9847607307244324  0.4667729181682878  0.8317647614378094  1.0000
  H   H10       1.0  0.9008059794329673  0.3983844521504416  0.5256663136236883  1.0000
  H   H11       1.0  0.8480745803261741  0.010948352886462231  0.33307898653560675  1.0000
  H   H12       1.0  0.8817235394985047  0.8637555855823943  0.5334817703980264  1.0000
  H   H13       1.0  0.9180466732044165  0.7466553647331752  0.862886627057345  1.0000
  H   H14       1.0  0.8095360647536116  0.24982271987451155  0.23078133240303167  1.0000
  H   H15       1.0  0.8309735620019181  0.4109055645268078  0.31200025168381007  1.0000
  H   H16       1.0  0.9706991811960075  0.38855001276554146  0.27046937350047684  1.0000
  H   H17       1.0  0.9490233090167349  0.22539644138760773  0.18838239409154345  1.0000
  H   H18       1.0  0.9115347324876739  0.39654493398838575  0.12141818607863697  1.0000
  C   C23       1.0  0.9129818431577701  0.6221335570333553  0.26591594542310104  1.0000
  C   C24       1.0  0.8863833555103076  0.7646244650043874  0.2529567604084979  1.0000
  C   C25       1.0  0.8729521245220807  0.8353012569824834  0.12951639929876646  1.0000
  C   C26       1.0  0.8863832871310287  0.7646243103419801  0.017805584692067722  1.0000
  C   C27       1.0  0.9129817934554683  0.6221335449080618  0.028412844960027828  1.0000
  C   C28       1.0  0.9261274932310316  0.5515706750796538  0.15299737429125382  1.0000
  S   S1        1.0  0.8391256099758471  0.01746882279588302  0.11446712404475634  1.0000
  C   C29       1.0  0.7384890024417325  0.9622173241522132  0.10960433311004558  1.0000
  H   H19       1.0  0.9229771192297368  0.5684157806180552  0.598111623487011  1.0000
  H   H20       1.0  0.8758173867678976  0.8212222130333735  0.33837589819544234  1.0000
  H   H21       1.0  0.8758172342590153  0.8212219979519362  0.9230255721440321  1.0000
  H   H22       1.0  0.9466302253892225  0.4416508920991862  0.1620857882140041  1.0000
  H   H23       1.0  0.922975694858975  0.5684149630503024  0.7050959193353243  1.0000
  H   H24       1.0  0.7252139683841263  0.8974343618267397  0.024687985862440254  1.0000
  H   H25       1.0  0.7252142894859617  0.8974358344816935  0.2009227083445977  1.0000
  H   H26       1.0  0.7024835767520174  0.05998792684256049  0.10000936970143348  1.0000
  Zn  Zn1       1.0  0.8289363792779958  0.6180615952609612  0.6402930100261115  1.0000
  Zn  Zn2       1.0  0.997019920614541  0.6262044504985413  0.6540345982995444  1.0000
  C   C30       1.0  0.9130092978778633  0.6163911460898286  0.8842703539948242  1.0000
  C   C31       1.0  0.9129488282320899  0.6278768073080094  0.4100575362879726  1.0000
  C   C32       1.0  0.9116389788935066  0.8853950285448693  0.6426380496657802  1.0000
  C   C33       1.0  0.9143190986688178  0.35887119028051395  0.6516899008852959  1.0000
  O   O1        1.0  0.9767246080656915  0.6328881772338832  0.463647616600005  1.0000
  O   O2        1.0  0.976805042260619  0.617558927473626  0.8411094448211398  1.0000
  O   O3        1.0  0.9756976324736696  0.8347829229174695  0.6459895828732625  1.0000
  O   O4        1.0  0.9778319604446787  0.41566418932273774  0.6587673765402586  1.0000
  O   O5        1.0  0.8481242820891868  0.828601853659577  0.6355602270892426  1.0000
  O   O6        1.0  0.8492316830650934  0.611379590011  0.8306800240726864  1.0000
  O   O7        1.0  0.8491512491767327  0.6267087895437646  0.45321663482466557  1.0000
  O   O8        1.0  0.8502586016050108  0.4094847913227335  0.6483364920763883  1.0000
