data_image0
_chemical_formula_structural       NC8NC6H8C7NH5C6H6Zn2C4O8
_chemical_formula_sum              "N3 C31 H19 Zn2 O8"
_cell_length_a       17.457602349358154
_cell_length_b       10.302819778424748
_cell_length_c       10.681121600428288
_cell_angle_alpha    85.56070795582023
_cell_angle_beta     92.87590736930572
_cell_angle_gamma    91.68806980205999

_space_group_name_H-M_alt    "P 1"
_space_group_IT_number       1

loop_
  _space_group_symop_operation_xyz
  'x, y, z'

loop_
  _atom_site_type_symbol
  _atom_site_label
  _atom_site_symmetry_multiplicity
  _atom_site_fract_x
  _atom_site_fract_y
  _atom_site_fract_z
  _atom_site_occupancy
  N   N1        1.0  0.7224250127841039  0.4523851204979401  0.6755700782058967  1.0000
  C   C1        1.0  0.6613470800108999  0.40647415715316626  0.6653335675608036  1.0000
  C   C2        1.0  0.5853635486077204  0.349366631341679  0.6526085494194547  1.0000
  C   C3        1.0  0.526834918338  0.38951588379030855  0.7248307259236466  1.0000
  C   C4        1.0  0.4522894696720099  0.33452596302348403  0.7126981969271593  1.0000
  C   C5        1.0  0.3901699429818877  0.37691765991588255  0.7891842209752242  1.0000
  C   C6        1.0  0.3156232804287899  0.3953804565232688  0.7354127035443541  1.0000
  C   C7        1.0  0.257094647313935  0.4353458402653534  0.807738977384586  1.0000
  C   C8        1.0  0.1811098294862183  0.4544143068653066  0.751831140003794  1.0000
  N   N2        1.0  0.12003095246003041  0.4697389762911468  0.7068813844013107  1.0000
  C   C9        1.0  0.2726205140384707  0.4570914924634921  0.9343271209381121  1.0000
  C   C10       1.0  0.3463824725731834  0.4390175611867768  0.9884723906779915  1.0000
  C   C11       1.0  0.4048995007590216  0.39923217500237396  0.9165874873796844  1.0000
  C   C12       1.0  0.4375612971398609  0.23870958331136216  0.6269617586347571  1.0000
  C   C13       1.0  0.49607820925475216  0.19883892365583966  0.5551252964945828  1.0000
  C   C14       1.0  0.569838892250617  0.2539411840417505  0.5677881299189469  1.0000
  H   H1        1.0  0.5391789570661897  0.46468677773000877  0.7890812508644749  1.0000
  H   H2        1.0  0.3032782814870665  0.380415036290326  0.6370327541691354  1.0000
  H   H3        1.0  0.2277595409541971  0.4879645683144638  0.991061217503068  1.0000
  H   H4        1.0  0.3582137604986913  0.4555401600176845  0.08649241327734714  1.0000
  H   H5        1.0  0.46138511411514  0.38424491153762763  0.9610469183524011  1.0000
  H   H6        1.0  0.3810766423924334  0.19338810548535879  0.6166904213074627  1.0000
  H   H7        1.0  0.48424798034768474  0.12478414791548342  0.48971925697940133  1.0000
  H   H8        1.0  0.61469990923293  0.22219867861469056  0.5115468997867365  1.0000
  C   C15       1.0  0.9212316434603544  0.07980916152807405  0.6912314098900936  1.0000
  C   C16       1.0  0.8764497654455525  0.06795563369098634  0.7973666283773215  1.0000
  C   C17       1.0  0.8541703398740237  0.9449558107627882  0.8501699019656117  1.0000
  C   C18       1.0  0.8764498273658349  0.8326546265828813  0.7973666373574848  1.0000
  C   C19       1.0  0.9212316561064325  0.8423051892623032  0.6912314481068234  1.0000
  C   C20       1.0  0.9433886340271415  0.9663770771872685  0.6387183910613876  1.0000
  C   C21       1.0  0.8082624242230921  0.9339333189759577  0.9589741041856903  1.0000
  N   N3        1.0  0.7713674821625801  0.9250748726355461  0.04641698994670462  1.0000
  H   H9        1.0  0.9381939262391602  0.4116214199992685  0.6510294357979116  1.0000
  H   H10       1.0  0.8587882919775742  0.15413940662827863  0.8392249736128692  1.0000
  H   H11       1.0  0.858788387730684  0.7379898066831472  0.8392249514031731  1.0000
  H   H12       1.0  0.977922835926172  0.9746686548419996  0.5568707343854533  1.0000
  H   H13       1.0  0.9381939966219165  0.5186383424842542  0.6510295365193057  1.0000
  C   C22       1.0  0.9212316653675758  0.46105718202611046  0.3234862082465282  1.0000
  C   C23       1.0  0.8663178583210379  0.38645439830132555  0.25773927139262587  1.0000
  C   C24       1.0  0.8663178104202387  0.3864544794580407  0.12685712766756807  1.0000
  C   C25       1.0  0.9212316050546762  0.4610572430356519  0.05897663917325913  1.0000
  C   C26       1.0  0.976100087832061  0.5355982113742601  0.12471942640540057  1.0000
  C   C27       1.0  0.9761000780162068  0.5355981908140672  0.2556117242954503  1.0000
  H   H14       1.0  0.9767640809941762  0.5365010716965168  0.621117115150821  1.0000
  H   H15       1.0  0.8232738239535954  0.3279772106606924  0.3073863990320218  1.0000
  H   H16       1.0  0.8232738079304505  0.327977271073985  0.07888236854467712  1.0000
  H   H17       1.0  0.019149743206409164  0.5940831025728908  0.07511707678663493  1.0000
  H   H18       1.0  0.019149704551313373  0.5940830553734804  0.30354144122696325  1.0000
  H   H19       1.0  0.9767643204434513  0.5365006298184556  0.7591881082938965  1.0000
  Zn  Zn1       1.0  0.8371654982454583  0.4573895867720825  0.6846130754120441  1.0000
  Zn  Zn2       1.0  0.005290452748141217  0.4647238654331547  0.6978486398948534  1.0000
  C   C28       1.0  0.9212299251482772  0.4558850276738291  0.9199530814410861  1.0000
  C   C29       1.0  0.9212278617646134  0.46623014274315877  0.46250890131082256  1.0000
  C   C30       1.0  0.9212277027539285  0.6981770742645574  0.6862408408500618  1.0000
  C   C31       1.0  0.9212300267896427  0.22393653382131173  0.6962212041505815  1.0000
  O   O1        1.0  0.9850291292838426  0.470743892124593  0.5141890148343169  1.0000
  O   O2        1.0  0.9850316079499473  0.45693684666768575  0.8783180946187772  1.0000
  O   O3        1.0  0.985028953249533  0.652590700970411  0.689593739077635  1.0000
  O   O4        1.0  0.9850317266146028  0.27509004460657005  0.7029132719629172  1.0000
  O   O5        1.0  0.8574241670062007  0.6470234050972514  0.6795484388207447  1.0000
  O   O6        1.0  0.8574268217031386  0.45137111062422863  0.868272727589916  1.0000
  O   O7        1.0  0.8574243430881291  0.46517811084108107  0.5041421421868906  1.0000
  O   O8        1.0  0.8574269404157476  0.26952425403693936  0.6928664932047972  1.0000
