data_image0
_chemical_formula_structural       NC9NC5H8C6NCOH7C6H6Zn2C4O8
_chemical_formula_sum              "N3 C31 H21 O9 Zn2"
_cell_length_a       17.807436237873137
_cell_length_b       10.299619329790078
_cell_length_c       10.681121600428288
_cell_angle_alpha    85.56660960021885
_cell_angle_beta     89.39214167786866
_cell_angle_gamma    88.41592915749165

_space_group_name_H-M_alt    "P 1"
_space_group_IT_number       1

loop_
  _space_group_symop_operation_xyz
  'x, y, z'

loop_
  _atom_site_type_symbol
  _atom_site_label
  _atom_site_symmetry_multiplicity
  _atom_site_fract_x
  _atom_site_fract_y
  _atom_site_fract_z
  _atom_site_occupancy
  N   N1        1.0  0.7077745234327998  0.38774352008740176  0.6088053575518615  1.0000
  C   C1        1.0  0.6471778135541558  0.3525543966914728  0.5981718405227847  1.0000
  C   C2        1.0  0.5718021666087146  0.3087830024160305  0.5849448999188585  1.0000
  C   C3        1.0  0.5536921771645453  0.2373696899397646  0.4836860595315977  1.0000
  C   C4        1.0  0.48050628456679995  0.19475954507123894  0.4707638652233639  1.0000
  C   C5        1.0  0.4243815643666792  0.22318518894952688  0.5590691824764304  1.0000
  C   C6        1.0  0.3466038564842597  0.17801649338983672  0.5454153900022745  1.0000
  C   C7        1.0  0.2844488316786052  0.2597712575121369  0.5704356020789447  1.0000
  C   C8        1.0  0.2111205812016434  0.2169580775422939  0.5575265805957874  1.0000
  C   C9        1.0  0.1479161690917343  0.3014041506113696  0.5828979558571818  1.0000
  N   N2        1.0  0.0971128085233888  0.36929295103551163  0.6032958404678714  1.0000
  C   C10       1.0  0.1993637433406859  0.0921321575657319  0.5195728779433606  1.0000
  C   C11       1.0  0.2606613947131803  0.010363541409602162  0.4945445745278809  1.0000
  C   C12       1.0  0.3338701103249684  0.05278218760326858  0.507258254607188  1.0000
  C   C13       1.0  0.4431830872152943  0.29509285892574955  0.6605394689054138  1.0000
  C   C14       1.0  0.5164218015483338  0.33751261327339765  0.6733115542088213  1.0000
  H   H1        1.0  0.5960812760151392  0.2148852596852393  0.4145328409946789  1.0000
  H   H2        1.0  0.4675797733346557  0.14107861151830714  0.39080029726257504  1.0000
  H   H3        1.0  0.2929717226797386  0.3572344662503837  0.5982904873978538  1.0000
  H   H4        1.0  0.1428898398071223  0.05809669770901005  0.5093531855209366  1.0000
  H   H5        1.0  0.2514403739571263  0.9137204270974764  0.4655322377032374  1.0000
  H   H6        1.0  0.3804937925897506  0.9870382837608882  0.4888839660147146  1.0000
  H   H7        1.0  0.4015107270849027  0.3170382400231846  0.7309408921592417  1.0000
  H   H8        1.0  0.5298769816765415  0.392414120281265  0.7522708216829375  1.0000
  C   C15       1.0  0.9023476115752969  0.9971543160608951  0.6060193789787116  1.0000
  C   C16       1.0  0.8661123208538549  0.006962928179899741  0.4893277957852489  1.0000
  C   C17       1.0  0.848974931911065  0.8951237943835328  0.42964748289409127  1.0000
  C   C18       1.0  0.866336051366706  0.771793868465022  0.4894210332396691  1.0000
  C   C19       1.0  0.9025468653213978  0.7598718866910574  0.606092614896764  1.0000
  C   C20       1.0  0.920613986814816  0.8731697194820012  0.6634917895289603  1.0000
  N   N3        1.0  0.8108527512169893  0.9090088112967258  0.31112954528972536  1.0000
  C   C21       1.0  0.8226651021250878  0.8237706144936846  0.212428433035887  1.0000
  O   O1        1.0  0.8754069916926208  0.7395468016546878  0.21694665136018654  1.0000
  H   H9        1.0  0.9699846525523329  0.18588784268715197  0.8267641281735474  1.0000
  H   H10       1.0  0.8515539781541647  0.10175499871492177  0.4436355705306385  1.0000
  H   H11       1.0  0.8502715874520304  0.6851617381118771  0.4463303313299427  1.0000
  H   H12       1.0  0.9485562008160886  0.8647324194660257  0.7534408741123506  1.0000
  H   H13       1.0  0.9154382687499728  0.4278249062565124  0.6517765855825548  1.0000
  H   H14       1.0  0.7760789456706846  0.991258246190278  0.2913398568982166  1.0000
  H   H15       1.0  0.7870011575744733  0.8343311721040108  0.13069824279362185  1.0000
  C   C22       1.0  0.9024472687184653  0.37851306628298187  0.2383107550232635  1.0000
  C   C23       1.0  0.8486564470173078  0.3088342920238132  0.17764225014947788  1.0000
  C   C24       1.0  0.8486564001342948  0.3088343775181681  0.04676011086831955  1.0000
  C   C25       1.0  0.9024472096763203  0.37851313274217646  0.9738011915414493  1.0000
  C   C26       1.0  0.9561936339251431  0.4481341556804379  0.034469738361381896  1.0000
  C   C27       1.0  0.9561936243081345  0.4481341359983142  0.16536203715850895  1.0000
  H   H16       1.0  0.9568440486596368  0.44897747731686066  0.5308060210580896  1.0000
  H   H17       1.0  0.8064926615771396  0.2542167754568383  0.23127009252022113  1.0000
  H   H18       1.0  0.8064926459031446  0.2542168373307627  0.0027660635225823516  1.0000
  H   H19       1.0  0.9983629254403875  0.5027588718006573  0.980886154186678  1.0000
  H   H20       1.0  0.9983628875771762  0.5027588280689141  0.20931052220234192  1.0000
  H   H21       1.0  0.9568442830116873  0.4489770137450457  0.6688769919832738  1.0000
  Zn  Zn1       1.0  0.8201291402414331  0.38241561917436173  0.6072226720843654  1.0000
  Zn  Zn2       1.0  0.984758170751212  0.37461026591811963  0.6048888201293674  1.0000
  C   C28       1.0  0.9024442130090898  0.3733395664313468  0.8347772931260065  1.0000
  C   C29       1.0  0.9024448961555727  0.3836878720243586  0.3773342966723652  1.0000
  C   C30       1.0  0.9025053576674223  0.6157021857636158  0.601088505618715  1.0000
  C   C31       1.0  0.9023836949131893  0.14132369507402642  0.6110231515914868  1.0000
  O   O2        1.0  0.9649199575285379  0.38245682755596455  0.4231061820477806  1.0000
  O   O3        1.0  0.964918776280621  0.3686455486725573  0.7872337075332816  1.0000
  O   O4        1.0  0.9649673091609812  0.5643564688074898  0.598528370303437  1.0000
  O   O5        1.0  0.9648713684738728  0.18674591937456197  0.6118114261787613  1.0000
  O   O6        1.0  0.8400158863389643  0.570279968382917  0.6003000668248133  1.0000
  O   O7        1.0  0.839967353862847  0.3745706085310452  0.7890053374326707  1.0000
  O   O8        1.0  0.839968535148973  0.38838184215665583  0.42487630631953244  1.0000
  O   O9        1.0  0.8399199460888046  0.1926709246867211  0.6135816443392197  1.0000
