data_image0
_chemical_formula_structural       NC9NC5H8C6OCH8C7H8Zn2C4O8
_chemical_formula_sum              "N2 C32 H24 O9 Zn2"
_cell_length_a       17.807436237873137
_cell_length_b       9.273888216677433
_cell_length_c       9.274345330872308
_cell_angle_alpha    85.31914840457938
_cell_angle_beta     88.93938532988027
_cell_angle_gamma    87.81887448081709

_space_group_name_H-M_alt    "P 1"
_space_group_IT_number       1

loop_
  _space_group_symop_operation_xyz
  'x, y, z'

loop_
  _atom_site_type_symbol
  _atom_site_label
  _atom_site_symmetry_multiplicity
  _atom_site_fract_x
  _atom_site_fract_y
  _atom_site_fract_z
  _atom_site_occupancy
  N   N1        1.0  0.7057289505316706  0.553249097850337  0.4020437894315596  1.0000
  C   C1        1.0  0.6453942380036217  0.5142569806522796  0.38965278130720327  1.0000
  C   C2        1.0  0.5703444869849252  0.46575508103561636  0.37423971281843427  1.0000
  C   C3        1.0  0.5531308841459361  0.38730727848092417  0.25726476966396183  1.0000
  C   C4        1.0  0.4802624527819049  0.3400925238741923  0.24220740628729365  1.0000
  C   C5        1.0  0.4235612392778934  0.37090653825881104  0.3440874201285953  1.0000
  C   C6        1.0  0.3461198519110914  0.32085636638957227  0.32817700939582406  1.0000
  C   C7        1.0  0.2833546860362895  0.4114439073653504  0.3573284863068398  1.0000
  C   C8        1.0  0.2103450673700109  0.3640035358779159  0.342285519087127  1.0000
  C   C9        1.0  0.1465125913078739  0.4575772067818067  0.37185211325878176  1.0000
  N   N2        1.0  0.0952043059489796  0.5328039553395165  0.3956228243742972  1.0000
  C   C10       1.0  0.1995186783200937  0.22568930858220826  0.298061877083706  1.0000
  C   C11       1.0  0.2614265917709922  0.13508645203709535  0.2689010214960186  1.0000
  C   C12       1.0  0.3343199614346427  0.18209030414341676  0.2837173358438849  1.0000
  C   C13       1.0  0.4414624107834814  0.4499015927535728  0.4613079624977654  1.0000
  C   C14       1.0  0.514385505133692  0.49690617474006094  0.4761915919599  1.0000
  H   H1        1.0  0.595972800800279  0.3629277036229257  0.17748013672317509  1.0000
  H   H2        1.0  0.4680273614280482  0.2811568103180595  0.14984341128509415  1.0000
  H   H3        1.0  0.2911592319116361  0.5194539508000628  0.3898076199637759  1.0000
  H   H4        1.0  0.1432978841883047  0.1879749755386202  0.2861522552589508  1.0000
  H   H5        1.0  0.2529242420241522  0.02799718525342887  0.23509112039181645  1.0000
  H   H6        1.0  0.3814263035353707  0.10922846115514884  0.2622870733907612  1.0000
  H   H7        1.0  0.3993347878023798  0.4736717596625746  0.5425290410746804  1.0000
  H   H8        1.0  0.5271464624648252  0.5572061493522786  0.5674028718233128  1.0000
  C   C15       1.0  0.902682674971212  0.11945937884317392  0.39732237001761117  1.0000
  C   C16       1.0  0.8856454613975554  0.20460267615601957  0.26870296074496225  1.0000
  C   C17       1.0  0.8621923779136141  0.14205203129353916  0.14585109233246119  1.0000
  C   C18       1.0  0.8556393648625473  0.9913753701806283  0.1511574491480676  1.0000
  C   C19       1.0  0.873474021140847  0.9050163457176258  0.2769877471785842  1.0000
  C   C20       1.0  0.8982577504343099  0.9665821391836342  0.4003566189462795  1.0000
  O   O1        1.0  0.8455937925293869  0.23330694495091908  0.021467207081605766  1.0000
  C   C21       1.0  0.8210391289628042  0.18468735885087284  0.8890649252492544  1.0000
  H   H9        1.0  0.9073929422384833  0.19317969189904427  0.7523810441557586  1.0000
  H   H10       1.0  0.8888364823095019  0.32134346192726104  0.26437281637236354  1.0000
  H   H11       1.0  0.8374606764543006  0.9396067540279355  0.058122749003693075  1.0000
  H   H12       1.0  0.8695707780483379  0.7887565003855181  0.2765715568874756  1.0000
  H   H13       1.0  0.9045832071491405  0.6654970827557299  0.6384504143115575  1.0000
  H   H14       1.0  0.7670444570164316  0.12927049179629413  0.9065870688453277  1.0000
  H   H15       1.0  0.864356680560381  0.11013620693686277  0.8450780343027775  1.0000
  H   H16       1.0  0.812216103520659  0.27944633994513124  0.8094240123143135  1.0000
  C   C22       1.0  0.9021533822307484  0.5461746736539994  0.975020624390293  1.0000
  C   C23       1.0  0.8568753105307247  0.6501222246845928  0.04138181618937309  1.0000
  C   C24       1.0  0.8071648303336164  0.7427060141584456  0.9604823369454376  1.0000
  C   C25       1.0  0.8009882525181272  0.732422361795267  0.8116028640000428  1.0000
  C   C26       1.0  0.8474104310068694  0.6324691167822505  0.7432327011418298  1.0000
  C   C27       1.0  0.8987870368941014  0.5398668594443947  0.8226583248211394  1.0000
  C   C28       1.0  0.7486748781654432  0.8342274797272895  0.7242828784844035  1.0000
  H   H17       1.0  0.9900707406366624  0.22747598084778242  0.10080941223934459  1.0000
  H   H18       1.0  0.8587484360003498  0.6577618613818521  0.15719498546959598  1.0000
  H   H19       1.0  0.7728395441364976  0.8215360021643843  0.014479778883207395  1.0000
  H   H20       1.0  0.844582493750051  0.6293298760546979  0.6268757686450361  1.0000
  H   H21       1.0  0.9606988949799032  0.3281455129683615  0.5570132696279599  1.0000
  H   H22       1.0  0.7788425822192706  0.9327626378408322  0.6850116039253353  1.0000
  H   H23       1.0  0.6992035721989422  0.8661974769431566  0.7907760995639994  1.0000
  H   H24       1.0  0.7278401417300917  0.7820322627611997  0.6298384180120786  1.0000
  Zn  Zn1       1.0  0.8181231107363492  0.5473451605311688  0.40019917064538624  1.0000
  Zn  Zn2       1.0  0.9828101418410707  0.5386960468418922  0.39747926606654516  1.0000
  C   C29       1.0  0.8994517038216785  0.5353131076222106  0.6624161233207952  1.0000
  C   C30       1.0  0.9014833370641032  0.5507298241795109  0.13526243186320142  1.0000
  C   C31       1.0  0.8991131410305948  0.8065009071985079  0.394031924079131  1.0000
  C   C32       1.0  0.9018218524054088  0.2795402940337761  0.40364670277140613  1.0000
  O   O2        1.0  0.9637563666851757  0.5489699880889873  0.18800883412617253  1.0000
  O   O3        1.0  0.9621723275443268  0.5305073815135297  0.6076049570606901  1.0000
  O   O4        1.0  0.9618980853477656  0.7494949923884697  0.3908828365968353  1.0000
  O   O5        1.0  0.9640305530610723  0.32998239128886486  0.4047308473417186  1.0000
  O   O6        1.0  0.8369026433167686  0.756058819037341  0.39294759029079684  1.0000
  O   O7        1.0  0.8371768767635287  0.5370729416849829  0.6096696400086947  1.0000
  O   O8        1.0  0.8387609231081082  0.5555355109070901  0.1900717816940256  1.0000
  O   O9        1.0  0.8390351091050902  0.33654790298529447  0.40679390307846486  1.0000
