data_image0
_chemical_formula_structural       NC9NC5H8C6SCH8C6OCH8Zn2C4O8
_chemical_formula_sum              "N2 C32 H24 S1 O9 Zn2"
_cell_length_a       17.807436237873137
_cell_length_b       10.302809429070853
_cell_length_c       9.273891588657152
_cell_angle_alpha    86.07628969810115
_cell_angle_beta     89.08663702953788
_cell_angle_gamma    88.39000425637651

_space_group_name_H-M_alt    "P 1"
_space_group_IT_number       1

loop_
  _space_group_symop_operation_xyz
  'x, y, z'

loop_
  _atom_site_type_symbol
  _atom_site_label
  _atom_site_symmetry_multiplicity
  _atom_site_fract_x
  _atom_site_fract_y
  _atom_site_fract_z
  _atom_site_occupancy
  N   N1        1.0  0.7120684234072433  0.3741118249232436  0.39850355301649754  1.0000
  C   C1        1.0  0.6515164866172928  0.33883180111361444  0.3862676693595748  1.0000
  C   C2        1.0  0.5761965325185511  0.29494733657763983  0.3710475586485009  1.0000
  C   C3        1.0  0.5584440790514102  0.22259188027403365  0.25450085268649114  1.0000
  C   C4        1.0  0.485312556275538  0.17987122592221372  0.23963139365667963  1.0000
  C   C5        1.0  0.4288848733071675  0.2091283158170063  0.3412726210931025  1.0000
  C   C6        1.0  0.3511646515738686  0.16384289663121998  0.32556133443767465  1.0000
  C   C7        1.0  0.2889045500186936  0.24581184850354232  0.3543519622490434  1.0000
  C   C8        1.0  0.2156306782688244  0.20288834324331972  0.339497688326891  1.0000
  C   C9        1.0  0.1523193116863852  0.287551162108596  0.3686922270971853  1.0000
  N   N2        1.0  0.1014299635934492  0.35561422118189023  0.3921638299096377  1.0000
  C   C10       1.0  0.2040334451107587  0.07773775242857184  0.29582464981799617  1.0000
  C   C11       1.0  0.2654362039285831  0.9957548756023894  0.2670247099535734  1.0000
  C   C12       1.0  0.33859129756342415  0.038282104097806524  0.2816541785895823  1.0000
  C   C13       1.0  0.4473280234748131  0.2819799967739658  0.4580626586456824  1.0000
  C   C14       1.0  0.5205129200688311  0.32450888847797565  0.47275935484606224  1.0000
  H   H1        1.0  0.6010704910239696  0.19945639715543306  0.1749041075963078  1.0000
  H   H2        1.0  0.4726676810022929  0.12544549870453459  0.1475947794861887  1.0000
  H   H3        1.0  0.2973087771441855  0.3435116404660965  0.38640372113462496  1.0000
  H   H4        1.0  0.1476026285535131  0.04361499236473354  0.2840649739314125  1.0000
  H   H5        1.0  0.256337506805109  0.8988639338021734  0.23364056883335715  1.0000
  H   H6        1.0  0.3852936348820661  0.9723825614443089  0.26051161108828436  1.0000
  H   H7        1.0  0.4054143133758562  0.3045884563977994  0.539096216931406  1.0000
  H   H8        1.0  0.5336895068976089  0.380145284960707  0.5636398279128483  1.0000
  C   C15       1.0  0.9067527802715858  0.9836095001143865  0.39533991909312105  1.0000
  C   C16       1.0  0.9504625243302199  0.9881667341019121  0.2677991720690125  1.0000
  C   C17       1.0  0.9720053569094117  0.8734636839155199  0.2041790260137626  1.0000
  C   C18       1.0  0.9504624298231812  0.7530155800418351  0.26779909614427044  1.0000
  C   C19       1.0  0.9067527503479667  0.7461063628435942  0.39533991201350216  1.0000
  C   C20       1.0  0.885092110518794  0.8620219995165748  0.4584600115936577  1.0000
  S   S1        1.0  0.027989127432766603  0.8807716425037594  0.041393036914461945  1.0000
  C   C21       1.0  0.946919170248509  0.8919547204298344  0.9237599071960885  1.0000
  H   H9        1.0  0.8902560738463352  0.30920833499545886  0.44337326428772483  1.0000
  H   H10       1.0  0.967823574356458  0.08054369396930894  0.21713803336909288  1.0000
  H   H11       1.0  0.9678234088899116  0.6651933074297559  0.21713792374132712  1.0000
  H   H12       1.0  0.8513646247110933  0.8576012337602271  0.5568232569032099  1.0000
  H   H13       1.0  0.8902548512449364  0.4161926122241013  0.443371699190348  1.0000
  H   H14       1.0  0.91238586398512  0.8042962788287413  0.9435425416369494  1.0000
  H   H15       1.0  0.9123865691050658  0.9805312027396239  0.9435420061924282  1.0000
  H   H16       1.0  0.966649757528265  0.8980333129294509  0.8095091384366913  1.0000
  C   C22       1.0  0.9079835634048049  0.36136101089957107  0.9720445176749055  1.0000
  C   C23       1.0  0.9695105506352648  0.4132749502415123  0.03961641838353924  1.0000
  C   C24       1.0  0.026775926140542694  0.47508598027706883  0.958874260823495  1.0000
  C   C25       1.0  0.022719088956911992  0.48529866319481196  0.8074997014964729  1.0000
  C   C26       1.0  0.9627705229845825  0.4325236212379511  0.7385599027762968  1.0000
  C   C27       1.0  0.9055219457852671  0.36835479152681083  0.8186352383874191  1.0000
  O   O1        1.0  0.08625112800295764  0.525498898852641  0.03311247699369346  1.0000
  C   C28       1.0  0.14811932167611896  0.5908863456463154  0.9650287496914607  1.0000
  H   H17       1.0  0.7292793382531831  0.290110405346675  0.08597146241275033  1.0000
  H   H18       1.0  0.9723697421360468  0.4086128121960688  0.15650381654571155  1.0000
  H   H19       1.0  0.06599827506812783  0.532819030716879  0.7418728810302202  1.0000
  H   H20       1.0  0.9621643075058115  0.4392436443659373  0.621488596618105  1.0000
  H   H21       1.0  0.7863499431874126  0.31518379977843547  0.5451329781909249  1.0000
  H   H22       1.0  0.1279519829182112  0.6797010658696365  0.9009615333153276  1.0000
  H   H23       1.0  0.1794456741689905  0.5249640010769754  0.8941060249325274  1.0000
  H   H24       1.0  0.18657801721181166  0.620091844285318  0.049246099756786066  1.0000
  Zn  Zn1       1.0  0.8244297278002597  0.3687704206863729  0.39668238237809406  1.0000
  Zn  Zn2       1.0  0.9890686065468597  0.3609451403486592  0.39399685091277603  1.0000
  C   C29       1.0  0.9059855809006095  0.3618608230555611  0.658611510390311  1.0000
  C   C30       1.0  0.9075145508864967  0.36785629181975565  0.13206783505420927  1.0000
  C   C31       1.0  0.9067655870661562  0.601930944393475  0.3895958207329524  1.0000
  C   C32       1.0  0.9067344883178234  0.12778461395690766  0.4010836024785729  1.0000
  O   O2        1.0  0.9698367424627335  0.3670608502998176  0.18475397700287743  1.0000
  O   O3        1.0  0.9686204900152694  0.3567160750101166  0.6038866972530599  1.0000
  O   O4        1.0  0.9692495082455131  0.5505757865060363  0.3866546382627649  1.0000
  O   O5        1.0  0.969207668366652  0.1732011498686803  0.4019859288298395  1.0000
  O   O6        1.0  0.8442906097973202  0.5565144138380866  0.38869330536988844  1.0000
  O   O7        1.0  0.8436615917870559  0.36265626153883623  0.605925287502036  1.0000
  O   O8        1.0  0.8448778493236336  0.37300097726683834  0.18679083419504772  1.0000
  O   O9        1.0  0.8442487749102429  0.17914126844265366  0.40402289409420056  1.0000
