data_image0
_chemical_formula_structural       NC9NC5H8C7H8C7F3H5Zn2C4O8
_chemical_formula_sum              "N2 C32 H21 F3 Zn2 O8"
_cell_length_a       17.807436237873137
_cell_length_b       9.274341958901593
_cell_length_c       9.272291681409872
_cell_angle_alpha    86.0326854769446
_cell_angle_beta     89.81650948764641
_cell_angle_gamma    87.76967926577302

_space_group_name_H-M_alt    "P 1"
_space_group_IT_number       1

loop_
  _space_group_symop_operation_xyz
  'x, y, z'

loop_
  _atom_site_type_symbol
  _atom_site_label
  _atom_site_symmetry_multiplicity
  _atom_site_fract_x
  _atom_site_fract_y
  _atom_site_fract_z
  _atom_site_occupancy
  N   N1        1.0  0.6928102287850756  0.5281033536194786  0.39762571509966693  1.0000
  C   C1        1.0  0.6323981159471475  0.4889031675151996  0.38540736406872655  1.0000
  C   C2        1.0  0.5572520873216747  0.44014245279003616  0.3702090620118881  1.0000
  C   C3        1.0  0.5391785447118393  0.35980465838658593  0.2536897334837951  1.0000
  C   C4        1.0  0.46621598276410214  0.31233710465853326  0.23884149977466973  1.0000
  C   C5        1.0  0.4102804780339952  0.3447876038599027  0.34047677171516977  1.0000
  C   C6        1.0  0.3327396989342195  0.29447026984539115  0.32478798943034715  1.0000
  C   C7        1.0  0.2701571391205512  0.3855470264171508  0.3535379162273913  1.0000
  C   C8        1.0  0.1970536006942036  0.33785402810585663  0.3387049764591419  1.0000
  C   C9        1.0  0.1334055740882201  0.4319243157991144  0.3678574257208629  1.0000
  N   N2        1.0  0.0822455826303501  0.5075503293163961  0.39129519158888315  1.0000
  C   C10       1.0  0.1859505902058428  0.19879741826435127  0.29509410715918505  1.0000
  C   C11       1.0  0.24767583267620752  0.10770519227624975  0.2663348748086234  1.0000
  C   C12       1.0  0.3206615828308913  0.15495793619497644  0.2809431980260606  1.0000
  C   C13       1.0  0.4290432241187245  0.42567671646150207  0.4572391919147303  1.0000
  C   C14       1.0  0.5020592136460865  0.472931266502417  0.47191474812317225  1.0000
  H   H1        1.0  0.581420927679135  0.33414345014371505  0.17409777074420063  1.0000
  H   H2        1.0  0.4533005367961569  0.25190981493722475  0.14682506887426006  1.0000
  H   H3        1.0  0.278161975328012  0.4941039448958946  0.3855409506564482  1.0000
  H   H4        1.0  0.1296555085212365  0.16088303895877298  0.2833513958110232  1.0000
  H   H5        1.0  0.23896260031516733  4.8013692370840744e-05  0.23299890485857655  1.0000
  H   H6        1.0  0.3676364818982774  0.08173484728430713  0.2598335404082621  1.0000
  H   H7        1.0  0.3875263966762416  0.45075132262310924  0.5382683817081186  1.0000
  H   H8        1.0  0.5154910976388202  0.5347047404238605  0.5627742884072577  1.0000
  C   C15       1.0  0.8899214104989691  0.09412697238524137  0.3946685534073171  1.0000
  C   C16       1.0  0.8983173952370545  0.175874280370931  0.2625284466325086  1.0000
  C   C17       1.0  0.8992425970176239  0.10972902900188775  0.13190925117652252  1.0000
  C   C18       1.0  0.8909693242864712  0.960520163548296  0.13030261858286196  1.0000
  C   C19       1.0  0.8849102173988193  0.8770323164914573  0.2613379691803226  1.0000
  C   C20       1.0  0.8851416687656216  0.9415153553044845  0.39426479008030446  1.0000
  C   C21       1.0  0.8936267243983127  0.8891610127831125  0.9899087667711792  1.0000
  H   H9        1.0  0.8286265231048643  0.17844081249438148  0.7296809883327686  1.0000
  H   H10       1.0  0.9025670053660415  0.29223606355187126  0.25998134141249696  1.0000
  H   H11       1.0  0.9056180936374425  0.17539347739754807  0.031715562121379826  1.0000
  H   H12       1.0  0.8817264611838439  0.7606803083317113  0.25954917840337477  1.0000
  H   H13       1.0  0.8468701226962075  0.6479246364884597  0.6216531874026336  1.0000
  H   H14       1.0  0.9526335486088162  0.8562933327440667  0.9653338498312394  1.0000
  H   H15       1.0  0.8713823903674579  0.9643654175340498  0.9003007176324731  1.0000
  H   H16       1.0  0.858979466532836  0.7918679881339895  0.9962386375426435  1.0000
  C   C22       1.0  0.8859707654256489  0.5142010059418431  0.9711334208303528  1.0000
  C   C23       1.0  0.9370207850983299  0.420728352051166  0.05057454822139529  1.0000
  C   C24       1.0  0.9920811563850369  0.3399689753210213  0.9809267439821041  1.0000
  C   C25       1.0  0.9982797156348432  0.3522171290571088  0.82992649578738  1.0000
  C   C26       1.0  0.9457593777847906  0.44098879235942023  0.7493417877808715  1.0000
  C   C27       1.0  0.8890923192035112  0.5214413765921873  0.8177998500565327  1.0000
  C   C28       1.0  0.05646299049311043  0.2617903698645938  0.7544450167988055  1.0000
  F   F1        1.0  0.11951970737690076  0.2341076264691515  0.840352983280217  1.0000
  F   F2        1.0  0.07854703603115376  0.3328083840750331  0.6259725737419068  1.0000
  F   F3        1.0  0.026244910788006726  0.13194467116314867  0.7250518786035904  1.0000
  H   H17       1.0  0.7785073584413558  0.8113448928932665  0.05280526441453115  1.0000
  H   H18       1.0  0.9353350321930196  0.4122057521419975  0.16765353315056064  1.0000
  H   H19       1.0  0.030326065420995585  0.2687024214525593  0.04555775373768167  1.0000
  H   H20       1.0  0.9478800994025948  0.44472432073690116  0.6323173343739148  1.0000
  H   H21       1.0  0.7180192680169765  0.6686478063796775  0.7071598727870079  1.0000
  Zn  Zn1       1.0  0.8051929108993736  0.5221684161493108  0.39580720184593043  1.0000
  Zn  Zn2       1.0  0.9698629923532717  0.5134736069266237  0.39312556187094927  1.0000
  C   C29       1.0  0.8885330324671407  0.5143249061419266  0.6577645626673501  1.0000
  C   C30       1.0  0.886524659230737  0.521318843698489  0.13116831239095106  1.0000
  C   C31       1.0  0.8860201081795847  0.7812920039426312  0.38859651799859485  1.0000
  C   C32       1.0  0.8890375373890893  0.2543500160303822  0.4003364356581802  1.0000
  O   O1        1.0  0.9492020242830578  0.5204017256631619  0.18385981853996936  1.0000
  O   O2        1.0  0.9508364536415599  0.508641773143848  0.603037339362358  1.0000
  O   O3        1.0  0.9488063986111639  0.7242211381768957  0.3856822518877252  1.0000
  O   O4        1.0  0.9512320226659782  0.3048223729941386  0.4012147988353565  1.0000
  O   O5        1.0  0.8238238243928133  0.7308196530504134  0.38771796578905193  1.0000
  O   O6        1.0  0.8258538693585595  0.515242020853385  0.6050729755727398  1.0000
  O   O7        1.0  0.8242194339434792  0.5270019082691331  0.18589372156248718  1.0000
  O   O8        1.0  0.8262494327800216  0.3114225462047029  0.40324880994464873  1.0000
