data_image0
_chemical_formula_structural       NC9NC5H8C6OCH8C6SCH8Zn2C4O8
_chemical_formula_sum              "N2 C32 H24 O9 S1 Zn2"
_cell_length_a       17.807436237873137
_cell_length_b       9.273888216677433
_cell_length_c       10.302812801239593
_cell_angle_alpha    85.76054612307921
_cell_angle_beta     89.39214003622364
_cell_angle_gamma    87.81887448081709

_space_group_name_H-M_alt    "P 1"
_space_group_IT_number       1

loop_
  _space_group_symop_operation_xyz
  'x, y, z'

loop_
  _atom_site_type_symbol
  _atom_site_label
  _atom_site_symmetry_multiplicity
  _atom_site_fract_x
  _atom_site_fract_y
  _atom_site_fract_z
  _atom_site_occupancy
  N   N1        1.0  0.699382885620462  0.5413576839283218  0.5625502029756291  1.0000
  C   C1        1.0  0.6389989638954698  0.5022733573157987  0.5514038073513416  1.0000
  C   C2        1.0  0.5638880019797139  0.45365675920114423  0.5375389016523158  1.0000
  C   C3        1.0  0.5462098491253154  0.3743384712987594  0.43231348484660836  1.0000
  C   C4        1.0  0.4732816194985106  0.32701166522321934  0.4187685555260392  1.0000
  C   C5        1.0  0.41698500855914744  0.35858383393456794  0.5104152503781614  1.0000
  C   C6        1.0  0.3394804351684693  0.3084152625256913  0.49610295788407566  1.0000
  C   C7        1.0  0.2768310404039841  0.39921973828109225  0.5223263201336539  1.0000
  C   C8        1.0  0.2037616806473038  0.35166742245585825  0.5087943409507398  1.0000
  C   C9        1.0  0.1400466242770055  0.4454611172923413  0.5353911240851341  1.0000
  N   N2        1.0  0.08883274105174101  0.5208647589108404  0.5567741905560029  1.0000
  C   C10       1.0  0.1927596634413034  0.21302409876268746  0.46901273442043134  1.0000
  C   C11       1.0  0.2545517685357515  0.1222042376452217  0.4427809355336101  1.0000
  C   C12       1.0  0.3275039791688694  0.16931834742039764  0.456109027950119  1.0000
  C   C13       1.0  0.435351705443893  0.43845120143781857  0.6158615972312518  1.0000
  C   C14       1.0  0.5083339080963564  0.4855665420279689  0.6292502433079301  1.0000
  H   H1        1.0  0.5887349120034342  0.34936516797145734  0.360542804481343  1.0000
  H   H2        1.0  0.46067971714954287  0.267388612121235  0.33568204477550867  1.0000
  H   H3        1.0  0.2847645727240677  0.5074714797170321  0.5515430932679326  1.0000
  H   H4        1.0  0.1364915718725335  0.17522113860789568  0.45829937233866236  1.0000
  H   H5        1.0  0.24591514738295558  0.014863369768838286  0.412367063640112  1.0000
  H   H6        1.0  0.3745252139082739  0.09629702814635799  0.4368313242122528  1.0000
  H   H7        1.0  0.3935466408867322  0.462825786326589  0.6889244397186283  1.0000
  H   H8        1.0  0.5214570985718144  0.5465452780956257  0.7112998231768028  1.0000
  C   C15       1.0  0.8963178595874463  0.10753282982034706  0.5583030256541477  1.0000
  C   C16       1.0  0.8787698515910842  0.19171898786745412  0.4426027689577552  1.0000
  C   C17       1.0  0.8548288786854851  0.12825412369863476  0.33209073355548635  1.0000
  C   C18       1.0  0.8482969391060008  0.9776169505797592  0.33686409435041  1.0000
  C   C19       1.0  0.8666313132325228  0.89219430982234  0.45005539156320395  1.0000
  C   C20       1.0  0.891904985155879  0.9546781699472336  0.5610325000150778  1.0000
  O   O1        1.0  0.8377363196839023  0.21858341733278475  0.220200564460463  1.0000
  C   C21       1.0  0.8126558385327429  0.16897854119345257  0.10109740513310395  1.0000
  H   H9        1.0  0.9024381939006515  0.18389536150076724  0.8776978974886303  1.0000
  H   H10       1.0  0.881943675925877  0.30842755026565416  0.4387075651290686  1.0000
  H   H11       1.0  0.8297487760887465  0.9251560037353931  0.25317424731062066  1.0000
  H   H12       1.0  0.8627264172970976  0.7759313673521572  0.44968100542826406  1.0000
  H   H13       1.0  0.8991759988705516  0.6553649216916853  0.7752110085105222  1.0000
  H   H14       1.0  0.7587307533872532  0.11369206761331574  0.11685954028363343  1.0000
  H   H15       1.0  0.855798702198734  0.09410005469797711  0.06152876924397965  1.0000
  H   H16       1.0  0.803516530078754  0.26314486333086795  0.029456008844501502  1.0000
  C   C22       1.0  0.8941114531237506  0.5311055073153592  0.17841930010507023  1.0000
  C   C23       1.0  0.8680190952341176  0.6762833971233653  0.16806134634002534  1.0000
  C   C24       1.0  0.854843734002791  0.7483167780423206  0.045934158182311835  1.0000
  C   C25       1.0  0.8680190282757951  0.6762832492725352  0.9329101771676869  1.0000
  C   C26       1.0  0.8941114044312255  0.5311055001596436  0.9409162044262045  1.0000
  C   C27       1.0  0.9070069932292459  0.45921462462779816  0.06421509570126838  1.0000
  S   S1        1.0  0.82166066815615  0.933901677914643  0.03419325029606579  1.0000
  C   C28       1.0  0.7230757036116081  0.8887068554545388  0.039009029595390876  1.0000
  H   H17       1.0  0.9039165734793102  0.47637797539492177  0.5096374307983844  1.0000
  H   H18       1.0  0.8576541824111276  0.7339485193826265  0.2545137943654645  1.0000
  H   H19       1.0  0.8576540330415945  0.733948319517262  0.839163482945271  1.0000
  H   H20       1.0  0.9271196082394368  0.34722363804492895  0.07129839693875395  1.0000
  H   H21       1.0  0.9039151781548695  0.4763773001588283  0.616621863623585  1.0000
  H   H22       1.0  0.7100845240598537  0.8252398691557155  0.955353591120303  1.0000
  H   H23       1.0  0.7100848383173967  0.8252413099619118  0.13158828307717418  1.0000
  H   H24       1.0  0.6877772795539755  0.9900971840718602  0.03290912692950765  1.0000
  Zn  Zn1       1.0  0.8117697201734887  0.5354400196212863  0.5608908665794026  1.0000
  Zn  Zn2       1.0  0.9764459495485411  0.5267706653828876  0.5584441623087082  1.0000
  C   C29       1.0  0.8941396720842301  0.5253592907229676  0.7967694863480466  1.0000
  C   C30       1.0  0.8940777864166571  0.5368531195914927  0.3225656491122255  1.0000
  C   C31       1.0  0.8927352580900496  0.7945498718634885  0.5553430879442742  1.0000
  C   C32       1.0  0.8954821532456733  0.2676608084148515  0.5639921119840061  1.0000
  O   O2        1.0  0.9565602911725168  0.535485803207115  0.37001394883734884  1.0000
  O   O3        1.0  0.9566426207437917  0.5201456796789945  0.7474638174603927  1.0000
  O   O4        1.0  0.9555076962362491  0.7375205226799169  0.5525103099668174  1.0000
  O   O5        1.0  0.9576951594334728  0.31811097348290707  0.5649673598551519  1.0000
  O   O6        1.0  0.8305204540926339  0.7440997144812618  0.5543676698610756  1.0000
  O   O7        1.0  0.8316553695694171  0.5267266044764558  0.7493211137147584  1.0000
  O   O8        1.0  0.8315730403100482  0.5420666777371523  0.3718696840214981  1.0000
  O   O9        1.0  0.8327079086216672  0.32469183769622534  0.5668231923431899  1.0000
