data_image0
_chemical_formula_structural       NC8NC6H8C9H8C7H8Zn2C4O8
_chemical_formula_sum              "N2 C34 H24 Zn2 O8"
_cell_length_a       17.457602349358154
_cell_length_b       9.275152443626249
_cell_length_c       9.274345330872308
_cell_angle_alpha    84.93071507942183
_cell_angle_beta     92.44621323531219
_cell_angle_gamma    92.27213218982278

_space_group_name_H-M_alt    "P 1"
_space_group_IT_number       1

loop_
  _space_group_symop_operation_xyz
  'x, y, z'

loop_
  _atom_site_type_symbol
  _atom_site_label
  _atom_site_symmetry_multiplicity
  _atom_site_fract_x
  _atom_site_fract_y
  _atom_site_fract_z
  _atom_site_occupancy
  N   N1        1.0  0.7373814489890655  0.6262692397705949  0.4694056299224816  1.0000
  C   C1        1.0  0.6760790644316458  0.5753331243325888  0.4577647583298621  1.0000
  C   C2        1.0  0.5998163051532982  0.5119748628532748  0.4432940951428612  1.0000
  C   C3        1.0  0.5411823992597852  0.5559461199916107  0.526363612827311  1.0000
  C   C4        1.0  0.4663675018124062  0.49493615563533844  0.5125685092944543  1.0000
  C   C5        1.0  0.4041357231357966  0.5413612449713847  0.600542702263172  1.0000
  C   C6        1.0  0.3299552287433601  0.5623686758294524  0.5385350003783473  1.0000
  C   C7        1.0  0.2713197295530023  0.6061346261587357  0.6217250501871208  1.0000
  C   C8        1.0  0.19571486669405994  0.6278345726851995  0.5572542312748185  1.0000
  N   N2        1.0  0.1349414348112815  0.6452742397180704  0.5054198817708921  1.0000
  C   C9        1.0  0.2863716715345364  0.6291588686248735  0.7674868998765325  1.0000
  C   C10       1.0  0.3597679948776197  0.6085802687047148  0.8299238901533668  1.0000
  C   C11       1.0  0.4183908567401093  0.5650103868293057  0.7472417184330835  1.0000
  C   C12       1.0  0.4514777113194496  0.38921474087119656  0.4141143263686389  1.0000
  C   C13       1.0  0.510099718721794  0.3455496416165602  0.3314882426943999  1.0000
  C   C14       1.0  0.584127991553995  0.4066796698153645  0.34589390305519974  1.0000
  H   H1        1.0  0.5536675896964148  0.6389150755678545  0.6001336210723853  1.0000
  H   H2        1.0  0.31799006137682345  0.5466252272634176  0.42524750429177627  1.0000
  H   H3        1.0  0.2414240346108903  0.6629600614696929  0.8327443246760677  1.0000
  H   H4        1.0  0.3712304343281825  0.6260577341694009  0.942791585245411  1.0000
  H   H5        1.0  0.47457537002625927  0.5479501737225232  0.798510080833279  1.0000
  H   H6        1.0  0.3947722791274365  0.3389341370907779  0.4024313824663519  1.0000
  H   H7        1.0  0.498140488150344  0.2638316756462673  0.2563833490745042  1.0000
  H   H8        1.0  0.6290681488259386  0.3719076708028646  0.2812071542389021  1.0000
  C   C15       1.0  0.9338960326318496  0.21201985808202184  0.48868098579750563  1.0000
  C   C16       1.0  0.9067296939813028  0.2943990260974967  0.36360867389022045  1.0000
  C   C17       1.0  0.8867036150583666  0.22895635122739355  0.23688759484076494  1.0000
  C   C18       1.0  0.893531544633062  0.07997731281911791  0.23273741347675325  1.0000
  C   C19       1.0  0.9192020683866358  0.995846422930681  0.3566379973195011  1.0000
  C   C20       1.0  0.9384340770121196  0.0595127726478093  0.48615766350022915  1.0000
  C   C21       1.0  0.8732828592039245  0.0128498314055423  0.10155411650242874  1.0000
  C   C22       1.0  0.8563293579330331  0.9566129981232941  0.9917088181295446  1.0000
  C   C23       1.0  0.8357596452330881  0.8883675668439238  0.8584308483760612  1.0000
  H   H9        1.0  0.04293319104660687  0.2966776673792677  0.7867927725460133  1.0000
  H   H10       1.0  0.9026905965032022  0.41072690154347646  0.36278880060572805  1.0000
  H   H11       1.0  0.8665800032444497  0.29494953362169585  0.1415923010119191  1.0000
  H   H12       1.0  0.9224485708108631  0.8797224036996256  0.35290595246866174  1.0000
  H   H13       1.0  0.00937361928954128  0.766095702152279  0.6897265375197486  1.0000
  H   H14       1.0  0.8497277370988535  0.7722102735753544  0.8731792747496918  1.0000
  H   H15       1.0  0.7734041973194697  0.898120511912494  0.8330241647885304  1.0000
  H   H16       1.0  0.868542235587601  0.9429982445681986  0.7679809335421233  1.0000
  C   C24       1.0  0.9379178173160043  0.6390938329847362  0.06376443221271044  1.0000
  C   C25       1.0  0.8927858498946765  0.7385532985001608  0.12458365182116071  1.0000
  C   C26       1.0  0.8430054801527883  0.8261888372590627  0.037728766119121904  1.0000
  C   C27       1.0  0.836587272873721  0.8152693074597523  0.8882398990772331  1.0000
  C   C28       1.0  0.8829304446966547  0.7199239524658594  0.8255120664046216  1.0000
  C   C29       1.0  0.9344122628293924  0.6324387748826863  0.9110742152848914  1.0000
  C   C30       1.0  0.7842471105884663  0.911871304943809  0.794626464978673  1.0000
  H   H17       1.0  0.02430201926594444  0.32899682863434565  0.20101453269355996  1.0000
  H   H18       1.0  0.8947805901410822  0.74639014154926  0.24055453328679355  1.0000
  H   H19       1.0  0.8087912484514145  0.9016164360854584  0.08752467720146706  1.0000
  H   H20       1.0  0.8800086544235851  0.7164950923473397  0.7088667199912142  1.0000
  H   H21       1.0  0.9953803349571997  0.4267870610563671  0.6534241170845729  1.0000
  H   H22       1.0  0.8161114801076501  0.013558899964046134  0.7580420914826989  1.0000
  H   H23       1.0  0.7340629425208958  0.9388587207473009  0.8555535220805401  1.0000
  H   H24       1.0  0.7624101364734167  0.8575142401381743  0.6982313226454289  1.0000
  Zn  Zn1       1.0  0.8521086179772294  0.6317497370495972  0.47980690647187263  1.0000
  Zn  Zn2       1.0  0.0202141393544224  0.6397818185124962  0.4950304519038562  1.0000
  C   C31       1.0  0.9350424119233633  0.6279479809664918  0.7509315139103296  1.0000
  C   C32       1.0  0.9372821902788936  0.6435854819195153  0.22390614688496302  1.0000
  C   C33       1.0  0.9375961213666535  0.8993635089537633  0.48088530419497855  1.0000
  C   C34       1.0  0.9347284138713127  0.3721682168820122  0.49395243348321216  1.0000
  O   O1        1.0  0.0008640036023408459  0.6481347579911814  0.283428444138496  1.0000
  O   O2        1.0  0.9990487955173056  0.6294937835343193  0.702963123334069  1.0000
  O   O3        1.0  0.0011100819931009198  0.8486652020291905  0.48489881601858187  1.0000
  O   O4        1.0  0.9988026602663251  0.4289633479278039  0.5014926380569613  1.0000
  O   O5        1.0  0.8735200396992022  0.842568204894965  0.4733447151161254  1.0000
  O   O6        1.0  0.8714587628215733  0.6233985207109998  0.6914089403460726  1.0000
  O   O7        1.0  0.8732739778645406  0.6420394585084512  0.2718725267768203  1.0000
  O   O8        1.0  0.8712126340226208  0.42286803727425504  0.4899368288896657  1.0000
