data_image0
_chemical_formula_structural       NC9NC5H8C6H6C6NCH9Zn2C4O8
_chemical_formula_sum              "N3 C31 H23 Zn2 O8"
_cell_length_a       17.807436237873137
_cell_length_b       10.681118228259551
_cell_length_c       9.273390368590327
_cell_angle_alpha    86.16779738115358
_cell_angle_beta     89.39974432744097
_cell_angle_gamma    88.3900060031841

_space_group_name_H-M_alt    "P 1"
_space_group_IT_number       1

loop_
  _space_group_symop_operation_xyz
  'x, y, z'

loop_
  _atom_site_type_symbol
  _atom_site_label
  _atom_site_symmetry_multiplicity
  _atom_site_fract_x
  _atom_site_fract_y
  _atom_site_fract_z
  _atom_site_occupancy
  N   N1        1.0  0.7075435763070902  0.32342354496623793  0.39868928337708276  1.0000
  C   C1        1.0  0.6469570676363774  0.28937765745786237  0.3864548114807842  1.0000
  C   C2        1.0  0.5715941098717431  0.24702832255211682  0.37123645684664797  1.0000
  C   C3        1.0  0.5535123639482995  0.1770886316547764  0.25470323977941955  1.0000
  C   C4        1.0  0.48033882825800883  0.13586232869143755  0.2398354963930689  1.0000
  C   C5        1.0  0.4241983230555911  0.1642113371358469  0.3414649546905544  1.0000
  C   C6        1.0  0.3464337098634545  0.12051004792920983  0.3257554807857421  1.0000
  C   C7        1.0  0.2842549547776803  0.19961208689926724  0.35454278660546046  1.0000
  C   C8        1.0  0.2109391130139826  0.15819013684410188  0.33969022653555414  1.0000
  C   C9        1.0  0.1477102341571684  0.23989113944330986  0.3688813969543796  1.0000
  N   N2        1.0  0.0968872039172486  0.3055731043241856  0.3923502917047277  1.0000
  C   C10       1.0  0.1992184838706304  0.03741712135991149  0.2960222270888253  1.0000
  C   C11       1.0  0.26053986990853  0.9583016388949844  0.2672256102925188  1.0000
  C   C12       1.0  0.3337362983853093  0.9993410642452479  0.28185339105404283  1.0000
  C   C13       1.0  0.4429714531973694  0.23462998398489154  0.45824147524044223  1.0000
  C   C14       1.0  0.5161978745782113  0.27567109840306947  0.4729364757791803  1.0000
  H   H1        1.0  0.5959138827707673  0.1546722080347962  0.1751157112400583  1.0000
  H   H2        1.0  0.46743391168076437  0.08324822815907207  0.14780953479677428  1.0000
  H   H3        1.0  0.292749742643401  0.29389191559133976  0.3865908482394025  1.0000
  H   H4        1.0  0.1427544409303407  0.004488109534846352  0.28426390798434364  1.0000
  H   H5        1.0  0.2513468475438381  0.8648003321183724  0.23384532089120702  1.0000
  H   H6        1.0  0.380378898347298  0.9357489240288632  0.2607132621706998  1.0000
  H   H7        1.0  0.4012866958136532  0.25653986216415414  0.5392656504559048  1.0000
  H   H8        1.0  0.5296312361687492  0.3294515303577261  0.5638064303876675  1.0000
  C   C15       1.0  0.9022189880227176  0.9467482274723794  0.39552595389013856  1.0000
  C   C16       1.0  0.935189731681474  0.8717794562922354  0.5094516701374958  1.0000
  C   C17       1.0  0.9351897202009383  0.740897218034793  0.509451604429171  1.0000
  C   C18       1.0  0.9022189754041194  0.6822386325826084  0.3955260164007619  1.0000
  C   C19       1.0  0.8692755250497657  0.7571956254018392  0.28169444464536997  1.0000
  C   C20       1.0  0.8692755364932933  0.8880878835157634  0.2816945029557376  1.0000
  H   H9        1.0  0.868876438945248  0.2537049966224767  0.2803168080515215  1.0000
  H   H10       1.0  0.9610338006064365  0.9141980277357428  0.5987519778933921  1.0000
  H   H11       1.0  0.9610337082414855  0.6856940031397873  0.5987519539378257  1.0000
  H   H12       1.0  0.8434280864185442  0.7148226434135495  0.19238247695077204  1.0000
  H   H13       1.0  0.8434280667269477  0.9432470832421191  0.19238246555183736  1.0000
  H   H14       1.0  0.8688767155759362  0.3917756294528075  0.28031641366458215  1.0000
  C   C21       1.0  0.9022537981155697  0.31058662060906483  0.9722796456252114  1.0000
  C   C22       1.0  0.971254268107726  0.3049348676195356  0.04475872991458574  1.0000
  C   C23       1.0  0.039051214121894606  0.3109797686566669  0.9682401356192285  1.0000
  C   C24       1.0  0.039570250448135225  0.3229367110631278  0.8166036974085427  1.0000
  C   C25       1.0  0.9710276938218646  0.3264555228684418  0.7433075556570214  1.0000
  C   C26       1.0  0.9021841740375132  0.3184002312054959  0.8187723142666083  1.0000
  N   N3        1.0  0.10863696282982316  0.3303653083721976  0.7346909469677976  1.0000
  C   C27       1.0  0.18281295011449572  0.32711212653516064  0.800471480459461  1.0000
  H   H15       1.0  0.7836748193470945  0.25586803529493274  0.2600502290452469  1.0000
  H   H16       1.0  0.9728140766485992  0.2988184053563714  0.161781455914902  1.0000
  H   H17       1.0  0.09081337912296328  0.3074542659511341  0.028518396614220176  1.0000
  H   H18       1.0  0.9715869127418333  0.3326005625704507  0.6261708186940997  1.0000
  H   H19       1.0  0.7271026872266694  0.2291361536536034  0.7261317364715589  1.0000
  H   H20       1.0  0.10619936681458486  0.3387766482027501  0.621854800835631  1.0000
  H   H21       1.0  0.18768865905662846  0.40722260861757653  0.8698606391567538  1.0000
  H   H22       1.0  0.19197687479848602  0.23717500028630512  0.8658762143343739  1.0000
  H   H23       1.0  0.2268398195776682  0.3345608715128823  0.714864109903306  1.0000
  Zn  Zn1       1.0  0.8198997350715069  0.3182690287906107  0.3968683228486649  1.0000
  Zn  Zn2       1.0  0.9845310259811185  0.3107175217370872  0.39418310122350775  1.0000
  C   C28       1.0  0.9021956429906811  0.31193442654051173  0.6587671087527531  1.0000
  C   C29       1.0  0.9022369158188368  0.317053622934234  0.13228442746032476  1.0000
  C   C30       1.0  0.9022155759043178  0.5431624271106157  0.3897826191234717  1.0000
  C   C31       1.0  0.9022169267217702  0.08582412106699033  0.40126899484735645  1.0000
  O   O1        1.0  0.9647079668830076  0.3163527870051892  0.18496446629286534  1.0000
  O   O2        1.0  0.9646759324522997  0.30690289478016375  0.604048633941052  1.0000
  O   O3        1.0  0.9646911861928225  0.49362248198297176  0.386841769192805  1.0000
  O   O4        1.0  0.9646926569738677  0.1296332103401423  0.40217122389019555  1.0000
  O   O5        1.0  0.8397380478981786  0.4993533427658077  0.38888020109072996  1.0000
  O   O6        1.0  0.8397227941605064  0.31263525943839077  0.6060869889899814  1.0000
  O   O7        1.0  0.8397548287837461  0.32208509202608027  0.18700108848573027  1.0000
  O   O8        1.0  0.8397395188626441  0.13536550740152387  0.4042079541427315  1.0000
