data_image0
_chemical_formula_structural       NC8NC6H8C7H8C6NCH9Zn2C4O8
_chemical_formula_sum              "N3 C32 H25 Zn2 O8"
_cell_length_a       17.457602349358154
_cell_length_b       9.274341958901593
_cell_length_c       9.273390368590327
_cell_angle_alpha    86.13543912927544
_cell_angle_beta     92.8511133753594
_cell_angle_gamma    91.07026823974832

_space_group_name_H-M_alt    "P 1"
_space_group_IT_number       1

loop_
  _space_group_symop_operation_xyz
  'x, y, z'

loop_
  _atom_site_type_symbol
  _atom_site_label
  _atom_site_symmetry_multiplicity
  _atom_site_fract_x
  _atom_site_fract_y
  _atom_site_fract_z
  _atom_site_occupancy
  N   N1        1.0  0.7133571962336166  0.5969560313131779  0.4739561551982088  1.0000
  C   C1        1.0  0.6525746067453142  0.5458382255014305  0.46223055639234234  1.0000
  C   C2        1.0  0.5769584443155611  0.4822541324320322  0.4476544940996581  1.0000
  C   C3        1.0  0.5181609673081023  0.5277301323846972  0.5307263163999325  1.0000
  C   C4        1.0  0.4439692450512358  0.46650527653730545  0.5168295851917721  1.0000
  C   C5        1.0  0.3815658173801535  0.5145240460151512  0.6048059504769951  1.0000
  C   C6        1.0  0.3069100537126679  0.5343731770173534  0.5428980036680007  1.0000
  C   C7        1.0  0.24811373244413454  0.5796462288650601  0.626089854138723  1.0000
  C   C8        1.0  0.17201629664741452  0.6001419571701498  0.5617224852440832  1.0000
  N   N2        1.0  0.11084691553990231  0.6166134408599093  0.5099712960057405  1.0000
  C   C9        1.0  0.2634793756489883  0.6053461123424821  0.7717537030978994  1.0000
  C   C10       1.0  0.3373478857968937  0.5859334571578108  0.8340913302376447  1.0000
  C   C11       1.0  0.3961313771994315  0.5408657210153964  0.7514072347718255  1.0000
  C   C12       1.0  0.42986820768209727  0.3590353677841005  0.4182716166684173  1.0000
  C   C13       1.0  0.4886521203071905  0.31387351164636845  0.33564337534251387  1.0000
  C   C14       1.0  0.5620582698228666  0.37522962347824795  0.3501502974092967  1.0000
  H   H1        1.0  0.5300135023956328  0.6120067581432702  0.6045811655866824  1.0000
  H   H2        1.0  0.2946772021313337  0.5165487930526893  0.4296907299462813  1.0000
  H   H3        1.0  0.2184114706453211  0.6403298783438736  0.8370115404012535  1.0000
  H   H4        1.0  0.3490571272114175  0.6054829789352416  0.9468824790228543  1.0000
  H   H5        1.0  0.4527054185853747  0.5247629963388627  0.8025937012832207  1.0000
  H   H6        1.0  0.3736751318554031  0.30857186987098517  0.40650522207721584  1.0000
  H   H7        1.0  0.47730644967703556  0.23082241944878445  0.2604572940060572  1.0000
  H   H8        1.0  0.6071316970229501  0.3392862181066252  0.2854607524012065  1.0000
  C   C15       1.0  0.914544100605539  0.18333238636687388  0.49243190742378395  1.0000
  C   C16       1.0  0.9236296092454365  0.26572409340426373  0.36128746609057605  1.0000
  C   C17       1.0  0.9250843536929112  0.19945421937994823  0.23085071652529998  1.0000
  C   C18       1.0  0.9166467760691452  0.04938817882212487  0.2283455729574413  1.0000
  C   C19       1.0  0.9099506459813655  0.9654954241557546  0.35864002920365823  1.0000
  C   C20       1.0  0.9096673849904525  0.030226435061858403  0.4915087161168441  1.0000
  C   C21       1.0  0.9199076342733546  0.9780668309115932  0.08832862689399557  1.0000
  H   H9        1.0  0.8506761504322472  0.26188037892146787  0.8205700739867448  1.0000
  H   H10       1.0  0.9279767947994308  0.3825204844842467  0.35920399905928235  1.0000
  H   H11       1.0  0.9319828663067714  0.26560824039809083  0.13141299457741717  1.0000
  H   H12       1.0  0.9067082357026481  0.8488115811215903  0.356506203095867  1.0000
  H   H13       1.0  0.8697180863418714  0.7330663123720365  0.7145935177982934  1.0000
  H   H14       1.0  0.9802271393648434  0.9512519744418977  0.07018467098848191  1.0000
  H   H15       1.0  0.8975548448412138  0.05082278447794919  0.9963581988466297  1.0000
  H   H16       1.0  0.8845212593727038  0.8772060936575483  0.09088748199434638  1.0000
  C   C22       1.0  0.9121671947611975  0.602284464984802  0.06873264666895995  1.0000
  C   C23       1.0  0.9826278351020701  0.6029030448150128  0.14872095353419112  1.0000
  C   C24       1.0  0.051782581660927196  0.6168656539918649  0.07956604460861771  1.0000
  C   C25       1.0  0.052233039202018494  0.6306873039448997  0.9279710291028183  1.0000
  C   C26       1.0  0.9822538962665242  0.627660002799729  0.8472181292940051  1.0000
  C   C27       1.0  0.912044326914871  0.6112744013991662  0.9152079367206976  1.0000
  N   N3        1.0  0.12267455838288055  0.6463743378981655  0.8535582833354298  1.0000
  C   C28       1.0  0.19840152443446812  0.6502893265622822  0.9274077403972343  1.0000
  H   H17       1.0  0.791506089920992  0.527030848468987  0.34367933172242826  1.0000
  H   H18       1.0  0.9842603600419954  0.596021228250073  0.2659209490644092  1.0000
  H   H19       1.0  0.10463538835969777  0.618152165273651  0.14547661141717882  1.0000
  H   H20       1.0  0.9827839007842033  0.6347935793845605  0.7301344797742724  1.0000
  H   H21       1.0  0.7339447629412972  0.49040713402784153  0.8036435490606038  1.0000
  H   H22       1.0  0.12013093097234995  0.6558079756732667  0.7404465487443934  1.0000
  H   H23       1.0  0.20284659064145472  0.7430375959781117  0.9972264491097396  1.0000
  H   H24       1.0  0.20835072575762825  0.5476760039216058  0.9939217296155118  1.0000
  H   H25       1.0  0.24328677941925125  0.6634134350162055  0.846577873553696  1.0000
  Zn  Zn1       1.0  0.828064164066637  0.6026249564495969  0.48435767277174424  1.0000
  Zn  Zn2       1.0  0.9961399998235232  0.6109328182466951  0.4995815911441841  1.0000
  C   C29       1.0  0.9120989039171888  0.603830414902899  0.7552120948958121  1.0000
  C   C30       1.0  0.912107084858397  0.60972927145689  0.22872747474181332  1.0000
  C   C31       1.0  0.9105860885236652  0.8700842545649163  0.48593950504582506  1.0000
  C   C32       1.0  0.9136198528644282  0.3434736972957171  0.49800013812558763  1.0000
  O   O1        1.0  0.9758708513864472  0.6153743158232359  0.288200605154036  1.0000
  O   O2        1.0  0.9759008140428448  0.6044897531695734  0.7072931525677908  1.0000
  O   O3        1.0  0.974678336425319  0.819493069350995  0.48985355159796407  1.0000
  O   O4        1.0  0.9770932716073644  0.4003710059745986  0.5056400928527423  1.0000
  O   O5        1.0  0.8471108349267538  0.8131867658881176  0.47829916586042764  1.0000
  O   O6        1.0  0.8483333025757298  0.5981851813722747  0.6957386880937082  1.0000
  O   O7        1.0  0.8483033405112594  0.6090696753753024  0.27664440791968703  1.0000
  O   O8        1.0  0.8495257607727434  0.3940663563603042  0.4940840036867553  1.0000
