data_image0
_chemical_formula_structural       NC9NC5H8C6FH5C7OH6Zn2C4O8
_chemical_formula_sum              "N2 C31 H19 F1 O9 Zn2"
_cell_length_a       17.807436237873137
_cell_length_b       9.275642734913903
_cell_length_c       9.274081674992354
_cell_angle_alpha    85.99194240723541
_cell_angle_beta     89.07685020002326
_cell_angle_gamma    88.99238798493903

_space_group_name_H-M_alt    "P 1"
_space_group_IT_number       1

loop_
  _space_group_symop_operation_xyz
  'x, y, z'

loop_
  _atom_site_type_symbol
  _atom_site_label
  _atom_site_symmetry_multiplicity
  _atom_site_fract_x
  _atom_site_fract_y
  _atom_site_fract_z
  _atom_site_occupancy
  N   N1        1.0  0.7205875296150213  0.5262133234700206  0.3961753126670451  1.0000
  C   C1        1.0  0.6598215734433938  0.487032790329907  0.3839998289842579  1.0000
  C   C2        1.0  0.5842354028036103  0.43829652171774125  0.3688548491899044  1.0000
  C   C3        1.0  0.5660520868928468  0.3579495428754891  0.25243308464906367  1.0000
  C   C4        1.0  0.4926614122774816  0.3105057582800095  0.2376367646926001  1.0000
  C   C5        1.0  0.4364031402177655  0.342989472858904  0.3392268353214989  1.0000
  C   C6        1.0  0.3584082037924053  0.29269736250314526  0.32359307810172977  1.0000
  C   C7        1.0  0.29664531895697  0.38372865364548536  0.35224336950894575  1.0000
  C   C8        1.0  0.2231110572660574  0.3360595837562377  0.33746258094553494  1.0000
  C   C9        1.0  0.1603132960115503  0.4300826183619295  0.3665121775597957  1.0000
  N   N2        1.0  0.1098368510230321  0.5056706443151713  0.3898672568751982  1.0000
  C   C10       1.0  0.2107546461138597  0.1970725447829793  0.2940038054118703  1.0000
  C   C11       1.0  0.2716601041343762  0.10602578955548281  0.26534422584368156  1.0000
  C   C12       1.0  0.3450731914820703  0.1532547785205025  0.2799008885732299  1.0000
  C   C13       1.0  0.4552801567952507  0.4238875320211788  0.45589108107662835  1.0000
  C   C14       1.0  0.5287230513117991  0.4711183622507469  0.47051496774496004  1.0000
  H   H1        1.0  0.6085444660483587  0.33226248987197815  0.1728767834942737  1.0000
  H   H2        1.0  0.4796928280933886  0.25006919501109603  0.14569418240064103  1.0000
  H   H3        1.0  0.3056423844858838  0.4922301560574547  0.38412788615920856  1.0000
  H   H4        1.0  0.1541168238870792  0.15917721428278053  0.2823025473712859  1.0000
  H   H5        1.0  0.2619736176282493  0.9984227036175605  0.23212596102485739  1.0000
  H   H6        1.0  0.39137561097713147  0.08006932629551744  0.25887112216263053  1.0000
  H   H7        1.0  0.4134971395491226  0.4489891529898069  0.5368850787909762  1.0000
  H   H8        1.0  0.5422308303757464  0.5328995824219287  0.5612993546478624  1.0000
  C   C15       1.0  0.9128913114981  0.09252605420614923  0.39367868080642676  1.0000
  C   C16       1.0  0.8987367830601976  0.1754227946266993  0.2636969853480755  1.0000
  C   C17       1.0  0.8916659038663797  0.10935978936306934  0.13404512602812746  1.0000
  C   C18       1.0  0.8987001297620015  0.9596812813494069  0.13208235597720308  1.0000
  C   C19       1.0  0.91150309453611  0.875248370802132  0.2600696566417875  1.0000
  C   C20       1.0  0.9175401621076732  0.939346582404651  0.39237628262553503  1.0000
  F   F1        1.0  0.878849409455056  0.1910219737696932  0.009577652027447536  1.0000
  H   H9        1.0  0.9895569828794545  0.17050167526500282  0.714386425310602  1.0000
  H   H10       1.0  0.8949072339378799  0.29223380052611936  0.2619143729878559  1.0000
  H   H11       1.0  0.8935130312913948  0.9085932369116142  0.031361096798540045  1.0000
  H   H12       1.0  0.9149066671356495  0.7588734370451328  0.256053149810918  1.0000
  H   H13       1.0  0.9661508589551444  0.6413094796012445  0.6101786659501243  1.0000
  C   C21       1.0  0.9164625509031749  0.5120896883228012  0.9697430342010724  1.0000
  C   C22       1.0  0.9778065447570096  0.57162201304706  0.03718406875556646  1.0000
  C   C23       1.0  0.03495554395662026  0.6420158834931873  0.9556686434180914  1.0000
  C   C24       1.0  0.030747460886371814  0.653269257125761  0.804598156447025  1.0000
  C   C25       1.0  0.9709728531150933  0.5928317422360261  0.7359300530614159  1.0000
  C   C26       1.0  0.9139689097890058  0.519782941812226  0.816311905679151  1.0000
  C   C27       1.0  0.09806660353749685  0.7043260730121301  0.02999573274911782  1.0000
  O   O1        1.0  0.15012504410257232  0.7687751179930082  0.9597150297806518  1.0000
  H   H14       1.0  0.7379899685366245  0.42781782078133057  0.08413979513539105  1.0000
  H   H15       1.0  0.9802589107004444  0.5661388529647209  0.15419141902035216  1.0000
  H   H16       1.0  0.07406311777766161  0.7076290287984826  0.7392062820343406  1.0000
  H   H17       1.0  0.970317086019404  0.6003182816559618  0.618856126213486  1.0000
  H   H18       1.0  0.7949627758810818  0.4570583463764095  0.5432560763435084  1.0000
  H   H19       1.0  0.10020592440775888  0.6950440520072159  0.14688153518307123  1.0000
  Zn  Zn1       1.0  0.8329164286560532  0.5202813784262441  0.39436328623354955  1.0000
  Zn  Zn2       1.0  0.9975078343565651  0.5115909437206636  0.3916911514432304  1.0000
  C   C28       1.0  0.9144070475253807  0.5125847604657914  0.6563011575915254  1.0000
  C   C29       1.0  0.916019022390941  0.5192892873490784  0.12975338958368776  1.0000
  C   C30       1.0  0.9166744697558866  0.7792274864899  0.3868785768179692  1.0000
  C   C31       1.0  0.9137515342604693  0.2526448326588644  0.3991760507818347  1.0000
  O   O2        1.0  0.9783317163258293  0.5184012734674277  0.1824402750101719  1.0000
  O   O3        1.0  0.9770154173821034  0.506875843978722  0.6015857704263301  1.0000
  O   O4        1.0  0.9788455430818737  0.7221932754794407  0.384025141606684  1.0000
  O   O5        1.0  0.9765015348371359  0.3030838542645  0.40000079664883836  1.0000
  O   O6        1.0  0.8539226720085439  0.7287884708495274  0.38605364193222624  1.0000
  O   O7        1.0  0.8520925560418016  0.5134727709820339  0.6036141912315658  1.0000
  O   O8        1.0  0.8534088598643877  0.5249981344736667  0.1844669628805644  1.0000
  O   O9        1.0  0.8515786779976796  0.30968070594006747  0.40202759260449494  1.0000
