data_image0
_chemical_formula_structural       NC9NC5H8C8H10C7NH5Zn2C4O8
_chemical_formula_sum              "N3 C33 H23 Zn2 O8"
_cell_length_a       17.807436237873137
_cell_length_b       9.275653711864159
_cell_length_c       10.302823150593486
_cell_angle_alpha    85.74330494099308
_cell_angle_beta     89.3921433004221
_cell_angle_gamma    87.8440138982238

_space_group_name_H-M_alt    "P 1"
_space_group_IT_number       1

loop_
  _space_group_symop_operation_xyz
  'x, y, z'

loop_
  _atom_site_type_symbol
  _atom_site_label
  _atom_site_symmetry_multiplicity
  _atom_site_fract_x
  _atom_site_fract_y
  _atom_site_fract_z
  _atom_site_occupancy
  N   N1        1.0  0.6997372116643281  0.541073445580607  0.5621282234552618  1.0000
  C   C1        1.0  0.6393443036698981  0.5019963278537563  0.5509925757429484  1.0000
  C   C2        1.0  0.5642221638245806  0.4533886967989944  0.5371410392628138  1.0000
  C   C3        1.0  0.5465257713366506  0.3740850411965859  0.4319375172849975  1.0000
  C   C4        1.0  0.47358666032769975  0.32676696428744223  0.41840560254768455  1.0000
  C   C5        1.0  0.4172973112341167  0.3583333072025927  0.5100435323772383  1.0000
  C   C6        1.0  0.3397812030839746  0.30817398910655536  0.4957450358884643  1.0000
  C   C7        1.0  0.2771526860979923  0.398961716473909  0.5219434272247219  1.0000
  C   C8        1.0  0.2040723931125496  0.3514181714067608  0.5084245245611381  1.0000
  C   C9        1.0  0.1403789017860184  0.44519456652484934  0.5349955152487798  1.0000
  N   N2        1.0  0.0891823553640217  0.520584300366592  0.5563578463757894  1.0000
  C   C10       1.0  0.1930384990216727  0.21280041970730346  0.46868104420215007  1.0000
  C   C11       1.0  0.2548097228000791  0.12199730981575074  0.4424742204635763  1.0000
  C   C12       1.0  0.3277727659069656  0.16910272965987216  0.45578935694346523  1.0000
  C   C13       1.0  0.4356823739989484  0.4381859411292677  0.6154678333449111  1.0000
  C   C14       1.0  0.5086754094101885  0.4852925915595352  0.6288435230861138  1.0000
  H   H1        1.0  0.5890450901838321  0.3491163460003275  0.36017376925097433  1.0000
  H   H2        1.0  0.4609710472282825  0.26715491031239536  0.33533555400186565  1.0000
  H   H3        1.0  0.2851111076058895  0.5071934915307608  0.5511304335601819  1.0000
  H   H4        1.0  0.1367617157975431  0.1750044320952655  0.45797807759787523  1.0000
  H   H5        1.0  0.24614842183867888  0.014676240356742642  0.4120898663465593  1.0000
  H   H6        1.0  0.374777211634548  0.09609487871364775  0.4365317319973461  1.0000
  H   H7        1.0  0.3938829158644323  0.4625560282732575  0.688523906676884  1.0000
  H   H8        1.0  0.5218126222870134  0.5462600784949301  0.7108762693750961  1.0000
  C   C15       1.0  0.896572444616314  0.10732860444904402  0.5580002250371505  1.0000
  C   C16       1.0  0.8789364503806982  0.1916624198716128  0.4424741360580604  1.0000
  C   C17       1.0  0.8545249425296856  0.1277197411683777  0.3320729298902847  1.0000
  C   C18       1.0  0.8488672317457964  0.9774236800012387  0.3363050633057414  1.0000
  C   C19       1.0  0.8673141653439251  0.8918597350915235  0.4493171440050787  1.0000
  C   C20       1.0  0.8923543470158335  0.9543176663090658  0.5604969500852495  1.0000
  C   C21       1.0  0.8369242215774975  0.21943388217489157  0.20863267056650892  1.0000
  C   C22       1.0  0.9072180654752369  0.23757460599882463  0.12404513721557553  1.0000
  H   H9        1.0  0.9647863958681635  0.3682836633752924  0.7369366987673949  1.0000
  H   H10       1.0  0.8825345221009826  0.3082918084846895  0.4389231257132893  1.0000
  H   H11       1.0  0.8308726885882176  0.9261295626538409  0.25141385292051144  1.0000
  H   H12       1.0  0.8638391391882508  0.7755714417879641  0.4485761511431716  1.0000
  H   H13       1.0  0.8994255272973074  0.6548384101517485  0.7744828785049094  1.0000
  H   H14       1.0  0.7931158617060944  0.1688583015171694  0.15282743429074452  1.0000
  H   H15       1.0  0.8141185363497405  0.3277971062802465  0.23198191129416035  1.0000
  H   H16       1.0  0.951010043545324  0.29146711853605  0.17699595506351073  1.0000
  H   H17       1.0  0.9297738289956391  0.1304814277658699  0.09699637352819179  1.0000
  H   H18       1.0  0.8930456460086713  0.3053792831830193  0.033642259881671244  1.0000
  C   C23       1.0  0.8944634092009486  0.5308231713919136  0.1780005222572707  1.0000
  C   C24       1.0  0.8156646112343244  0.5454188774254738  0.177368653805005  1.0000
  C   C25       1.0  0.7764614670637411  0.5526802603744023  0.05995178519596922  1.0000
  C   C26       1.0  0.8156645970910983  0.5454187840247804  0.9420676598953723  1.0000
  C   C27       1.0  0.8944634087895669  0.5308231639232845  0.9404966888567605  1.0000
  C   C28       1.0  0.9334510922506997  0.523601538681888  0.05901625785299136  1.0000
  C   C29       1.0  0.6956811745313055  0.567642763711677  0.06043312190865979  1.0000
  N   N3        1.0  0.6307602125882754  0.5796679039587684  0.060819925191834434  1.0000
  H   H19       1.0  0.9243107537785058  0.5252949814229222  0.5055620883704377  1.0000
  H   H20       1.0  0.7845873684366855  0.5511752367180152  0.26797809136008754  1.0000
  H   H21       1.0  0.7845873987688922  0.5511751289661702  0.8518285541077493  1.0000
  H   H22       1.0  0.9942178867551087  0.5123458805108305  0.058654189128978684  1.0000
  H   H23       1.0  0.924310729753983  0.5252947512422226  0.6125793877534549  1.0000
  Zn  Zn1       1.0  0.8121226856287662  0.535156872752838  0.5604705143462512  1.0000
  Zn  Zn2       1.0  0.9767969217465182  0.5264891175276187  0.558026194060568  1.0000
  C   C30       1.0  0.8944903277859988  0.5250779960063945  0.7963516667449833  1.0000
  C   C31       1.0  0.8944310687648133  0.5365697192661363  0.32214514775993486  1.0000
  C   C32       1.0  0.8931477954250348  0.7942189360203125  0.5548515620345704  1.0000
  C   C33       1.0  0.8957735535628617  0.26742704953517715  0.5636453174135445  1.0000
  O   O1        1.0  0.9569132607517793  0.5352026536365437  0.36959377549979466  1.0000
  O   O2        1.0  0.956992076128092  0.5198653480223472  0.747047479531358  1.0000
  O   O3        1.0  0.9559071218322146  0.737200105177519  0.552034453249477  1.0000
  O   O4        1.0  0.9579981588041202  0.3178679097556403  0.5646067053023529  1.0000
  O   O5        1.0  0.8309213923759216  0.7437780834842653  0.5538900039317682  1.0000
  O   O6        1.0  0.832006338039472  0.5264450590055856  0.7489029660977551  1.0000
  O   O7        1.0  0.8319275229634556  0.5417823143616753  0.37144770101134994  1.0000
  O   O8        1.0  0.8330124210640903  0.3244475601659538  0.5664607281205338  1.0000
