data_image0
_chemical_formula_structural       NC8NC6H8C8H10C7H8Zn2C4O8
_chemical_formula_sum              "N2 C33 H26 Zn2 O8"
_cell_length_a       17.457602349358154
_cell_length_b       9.275653711864159
_cell_length_c       9.274345330872308
_cell_angle_alpha    85.30210242747421
_cell_angle_beta     92.44621323531219
_cell_angle_gamma    91.13236207428555

_space_group_name_H-M_alt    "P 1"
_space_group_IT_number       1

loop_
  _space_group_symop_operation_xyz
  'x, y, z'

loop_
  _atom_site_type_symbol
  _atom_site_label
  _atom_site_symmetry_multiplicity
  _atom_site_fract_x
  _atom_site_fract_y
  _atom_site_fract_z
  _atom_site_occupancy
  N   N1        1.0  0.7203935769920866  0.6244414032322889  0.4786873148908881  1.0000
  C   C1        1.0  0.6596232668218122  0.5735625371664288  0.4667557331468075  1.0000
  C   C2        1.0  0.5840223426256514  0.5102754868632859  0.45192346229435043  1.0000
  C   C3        1.0  0.5249291166702785  0.5541973227443866  0.5352439392581381  1.0000
  C   C4        1.0  0.4507515241904158  0.49325593020840297  0.5211006306094002  1.0000
  C   C5        1.0  0.3880347929267424  0.5396288403157541  0.6093397877324593  1.0000
  C   C6        1.0  0.3136348566745726  0.5606126599852443  0.5474519825722679  1.0000
  C   C7        1.0  0.2545421820400523  0.6043294198107723  0.6308918199029134  1.0000
  C   C8        1.0  0.17871064336082274  0.6260049767994089  0.5665448501433619  1.0000
  N   N2        1.0  0.11775503817981112  0.6434250426126051  0.5148100348932936  1.0000
  C   C9        1.0  0.2693536147170524  0.6273277843038063  0.7767850769632458  1.0000
  C   C10       1.0  0.34296490038788036  0.6067723135900065  0.8391046180029675  1.0000
  C   C11       1.0  0.40204288957991813  0.5632514018482708  0.7561737777917679  1.0000
  C   C12       1.0  0.4369660907236095  0.38765334045801825  0.4220430587475721  1.0000
  C   C13       1.0  0.4960442200882544  0.3440373183561156  0.3391677631436696  1.0000
  C   C14       1.0  0.5694339337761162  0.4050986397895222  0.35392231386651773  1.0000
  H   H1        1.0  0.5365476203599764  0.6370730258106285  0.6094874802301335  1.0000
  H   H2        1.0  0.3018341440505167  0.5448869061832886  0.4340746331414089  1.0000
  H   H3        1.0  0.2240528933696525  0.6610909864802852  0.842235416943041  1.0000
  H   H4        1.0  0.3542447717009635  0.6242301353516742  0.9520720630776855  1.0000
  H   H5        1.0  0.4584056124204345  0.5462103634759696  0.8073447716138222  1.0000
  H   H6        1.0  0.38078588549897924  0.33742924929095386  0.41007314592716404  1.0000
  H   H7        1.0  0.4849386085312996  0.26241119885280506  0.2635964766302441  1.0000
  H   H8        1.0  0.6147373164315684  0.37036572257771727  0.28903710914103664  1.0000
  C   C15       1.0  0.9212353749108695  0.2106576149013868  0.4955984052647502  1.0000
  C   C16       1.0  0.9037626568090844  0.2942133624256815  0.3653017428404479  1.0000
  C   C17       1.0  0.8793540564156886  0.22876207060936138  0.23995974547628718  1.0000
  C   C18       1.0  0.8735626470491257  0.0778563993096335  0.24404448840722148  1.0000
  C   C19       1.0  0.8918740632132512  0.9931745288424297  0.371636200197035  1.0000
  C   C20       1.0  0.9169205660584129  0.057197924069180006  0.4979120264073271  1.0000
  C   C21       1.0  0.8619529894260186  0.31977071120580836  0.10087285361709353  1.0000
  C   C22       1.0  0.9340521876727493  0.3457645248853696  0.014558114850722337  1.0000
  H   H9        1.0  0.9900250377258096  0.4769577819433728  0.7018795803173601  1.0000
  H   H10       1.0  0.9074496286667545  0.4112379317058452  0.3617489007893959  1.0000
  H   H11       1.0  0.8555860674584431  0.025480839910955844  0.14774958488720813  1.0000
  H   H12       1.0  0.8883319706850547  0.8765409287214672  0.3704332853148973  1.0000
  H   H13       1.0  0.9231707387118986  0.7565689030497406  0.736461595930124  1.0000
  H   H14       1.0  0.8175085260451069  0.2652470543946628  0.03407840862773659  1.0000
  H   H15       1.0  0.838580034226057  0.42562181937128285  0.12432730208920706  1.0000
  H   H16       1.0  0.9784928000542978  0.4036283405237542  0.07817899288096086  1.0000
  H   H17       1.0  0.9571868285989207  0.24119041671010488  0.9869655277812841  1.0000
  H   H18       1.0  0.9200000064917843  0.4129227141079863  0.9125561939929829  1.0000
  C   C23       1.0  0.9207959806945909  0.6372515823140756  0.07311931160129714  1.0000
  C   C24       1.0  0.8746250680434422  0.7365992608998184  0.13450618102040846  1.0000
  C   C25       1.0  0.8239292648183306  0.824136302167727  0.04815146186084829  1.0000
  C   C26       1.0  0.8176251220311452  0.8132290453150239  0.8986002732592082  1.0000
  C   C27       1.0  0.8649642634306612  0.7179908532184871  0.8353282714375938  1.0000
  C   C28       1.0  0.9173599443863996  0.6306040041286758  0.9203911119389843  1.0000
  C   C29       1.0  0.7642758633873177  0.9097224675051769  0.8055381804060193  1.0000
  H   H19       1.0  0.010419429927652546  0.3275031098187493  0.20859958047392313  1.0000
  H   H20       1.0  0.8765379452850497  0.7444272957714531  0.2505217900788339  1.0000
  H   H21       1.0  0.7889271227497391  0.8994791245513545  0.09837786452054775  1.0000
  H   H22       1.0  0.8620782907426288  0.7145658469487992  0.7186633553252442  1.0000
  H   H23       1.0  0.9804762370578934  0.4251834314366192  0.6615672877809526  1.0000
  H   H24       1.0  0.795078012822865  0.01129577130159598  0.7695341734318313  1.0000
  H   H25       1.0  0.7138097870391331  0.9366795509482735  0.8666192640893864  1.0000
  H   H26       1.0  0.7430066986094108  0.8554264970292731  0.7088328033717834  1.0000
  Zn  Zn1       1.0  0.8350634971656147  0.6299157407359415  0.4891198705470652  1.0000
  Zn  Zn2       1.0  0.003085116093924034  0.6379387945842132  0.5043892578654698  1.0000
  C   C30       1.0  0.9180370039367374  0.6261182576160755  0.7602227800394337  1.0000
  C   C31       1.0  0.9201134342696611  0.641738182884267  0.2332866616784266  1.0000
  C   C32       1.0  0.9177555295527232  0.8972287295849541  0.49172563327424124  1.0000
  C   C33       1.0  0.9203948598344652  0.370625975817505  0.5017838754125663  1.0000
  O   O1        1.0  0.9836477262370532  0.646282345821636  0.2928349232349783  1.0000
  O   O2        1.0  0.9820272402067848  0.6276623227874463  0.7122632118968188  1.0000
  O   O3        1.0  0.9817990804385421  0.8465874047489319  0.4954497922023966  1.0000
  O   O4        1.0  0.9838758290570008  0.42735727228216813  0.5096482295805003  1.0000
  O   O5        1.0  0.8542727268650282  0.8404972603017415  0.48386089361375806  1.0000
  O   O6        1.0  0.854500878114971  0.6215739107018932  0.7006742411209568  1.0000
  O   O7        1.0  0.8561213714861126  0.6401938971178753  0.2812442178762091  1.0000
  O   O8        1.0  0.8563494739168457  0.4212688124201438  0.4980576323523551  1.0000
