data_image0
_chemical_formula_structural       NC8NC6H8C9H8C6NCH9Zn2C4O8
_chemical_formula_sum              "N3 C34 H25 Zn2 O8"
_cell_length_a       17.457602349358154
_cell_length_b       9.275152443626249
_cell_length_c       9.273390368590327
_cell_angle_alpha    85.97038560770254
_cell_angle_beta     92.8511133753594
_cell_angle_gamma    92.27213218982278

_space_group_name_H-M_alt    "P 1"
_space_group_IT_number       1

loop_
  _space_group_symop_operation_xyz
  'x, y, z'

loop_
  _atom_site_type_symbol
  _atom_site_label
  _atom_site_symmetry_multiplicity
  _atom_site_fract_x
  _atom_site_fract_y
  _atom_site_fract_z
  _atom_site_occupancy
  N   N1        1.0  0.7310906506700476  0.5979973042114797  0.4709437586232732  1.0000
  C   C1        1.0  0.6697404217085986  0.5468461677476864  0.4593145852042839  1.0000
  C   C2        1.0  0.5934181874802372  0.4832206155575749  0.44485846391212003  1.0000
  C   C3        1.0  0.5351257003142635  0.5287262675014941  0.5278445031702739  1.0000
  C   C4        1.0  0.4602541044915269  0.46746149084110167  0.5140632626471664  1.0000
  C   C5        1.0  0.3983839029355861  0.5155115702875919  0.6019490483711039  1.0000
  C   C6        1.0  0.3239485546416789  0.5353736436387142  0.5400036594202637  1.0000
  C   C7        1.0  0.2656549695702589  0.5806762151481955  0.6231101096772986  1.0000
  C   C8        1.0  0.1897851293096169  0.6011853074069544  0.5587040789406694  1.0000
  N   N2        1.0  0.12879865637226431  0.6176675310978315  0.506921818940153  1.0000
  C   C9        1.0  0.281305998035403  0.6063928558760543  0.768725480006228  1.0000
  C   C10       1.0  0.3549589396708024  0.5869675429404297  0.8310997259475195  1.0000
  C   C11       1.0  0.4132419748117001  0.5418704210094825  0.7485006434008628  1.0000
  C   C12       1.0  0.4449596637394565  0.35992150783339416  0.41570801854370076  1.0000
  C   C13       1.0  0.5032420749441102  0.3147302045374991  0.3331649676789492  1.0000
  C   C14       1.0  0.5773295555623541  0.37612632276601254  0.34755615146771435  1.0000
  H   H1        1.0  0.5479140881576879  0.6130578446580028  0.6015403782752049  1.0000
  H   H2        1.0  0.3115177715614826  0.517537637533185  0.42683000848599284  1.0000
  H   H3        1.0  0.2366265714921542  0.641399432553948  0.8339173261521458  1.0000
  H   H4        1.0  0.366885269437727  0.6065298117107665  0.9438539977547225  1.0000
  H   H5        1.0  0.4696372029249204  0.5257571967760004  0.7997174850708162  1.0000
  H   H6        1.0  0.3882062142246971  0.3094251059005688  0.40403681509445444  1.0000
  H   H7        1.0  0.49097416053860826  0.2316249600340381  0.2581355486555277  1.0000
  H   H8        1.0  0.622003847952869  0.34015948099842586  0.28293440781990564  1.0000
  C   C15       1.0  0.9276844567238817  0.1841039617386726  0.49019974425973567  1.0000
  C   C16       1.0  0.9000040663396529  0.264172892364281  0.36525312033117285  1.0000
  C   C17       1.0  0.8794571591903407  0.19638952537423604  0.23865938614361681  1.0000
  C   C18       1.0  0.8862680313692565  0.04733382807946773  0.23451337539018224  1.0000
  C   C19       1.0  0.9124477910117119  0.9654915323415253  0.3582894487500883  1.0000
  C   C20       1.0  0.9322121301580824  0.031550267479301564  0.4876789577057776  1.0000
  C   C21       1.0  0.8654801778363922  0.9777832319654881  0.1034619074608909  1.0000
  C   C22       1.0  0.8480752084091658  0.9195174227130015  0.9937269950984207  1.0000
  C   C23       1.0  0.8269577184244755  0.8488101855848812  0.8605829593737488  1.0000
  H   H9        1.0  0.037946865383654105  0.2742682575284432  0.7880119517701343  1.0000
  H   H10       1.0  0.8959615991526464  0.38048562375569017  0.36443407095578073  1.0000
  H   H11       1.0  0.8589418802659546  0.260622488040251  0.1434598566984342  1.0000
  H   H12       1.0  0.915678954596379  0.8492985777128299  0.35456115431504176  1.0000
  H   H13       1.0  0.00398834788363156  0.7418933611400198  0.691043260786165  1.0000
  H   H14       1.0  0.8409864268570161  0.7329253136502625  0.8753165647220706  1.0000
  H   H15       1.0  0.7644978481207525  0.8580938383737987  0.8352018075338719  1.0000
  H   H16       1.0  0.8593685563517507  0.9017701436113028  0.7702239396931647  1.0000
  C   C24       1.0  0.9299598189768085  0.6033292122139331  0.06571019887468776  1.0000
  C   C25       1.0  0.00042732835916958756  0.6039481953804919  0.14569733889015857  1.0000
  C   C26       1.0  0.0697371232028865  0.617919908681841  0.07651609178417362  1.0000
  C   C27       1.0  0.07034106374217708  0.6317505708488778  0.9248950039945028  1.0000
  C   C28       1.0  0.0003283040346049315  0.6287212957942343  0.8441478146945718  1.0000
  C   C29       1.0  0.9299367801956943  0.6123250103909026  0.9121685308805345  1.0000
  N   N3        1.0  0.14095678014349988  0.6474478333137552  0.8504526672011727  1.0000
  C   C30       1.0  0.21672722032445213  0.6513653746916057  0.924294739276657  1.0000
  H   H17       1.0  0.8084630577043079  0.5280265276274634  0.3407988375775979  1.0000
  H   H18       1.0  0.0019834339249222843  0.5970618916230808  0.26291031584268443  1.0000
  H   H19       1.0  0.12260421601145  0.6192072588153579  0.1424242317994462  1.0000
  H   H20       1.0  0.0009375236044555368  0.6358595237281446  0.7270507088483962  1.0000
  H   H21       1.0  0.750495041399046  0.49137893320431814  0.800832139567937  1.0000
  H   H22       1.0  0.13851790889555282  0.6568876221607427  0.7373231375941391  1.0000
  H   H23       1.0  0.22220221295238773  0.7441741193224152  0.99393849353604  1.0000
  H   H24       1.0  0.225536948396039  0.5486851444656389  0.9910022917587975  1.0000
  H   H25       1.0  0.26175821243331554  0.6644980405373293  0.843440115947292  1.0000
  Zn  Zn1       1.0  0.8458605692816985  0.6036699256914368  0.4813345826959674  1.0000
  Zn  Zn2       1.0  0.014028659982211478  0.6119832045139031  0.49654282964481644  1.0000
  C   C31       1.0  0.929908695188058  0.6048761701471042  0.7521867309196617  1.0000
  C   C32       1.0  0.9299823801894129  0.6107788729682062  0.22569098353677775  1.0000
  C   C33       1.0  0.9313525049248386  0.8713036169103021  0.4824118967129516  1.0000
  C   C34       1.0  0.9285385038043331  0.3443496905748966  0.49546589454912415  1.0000
  O   O1        1.0  0.9938088323112425  0.6164275981069669  0.28515346549532916  1.0000
  O   O2        1.0  0.9937179269586939  0.6055359383260956  0.7042665448577508  1.0000
  O   O3        1.0  0.9948829612303024  0.8206794444199477  0.48642137526827156  1.0000
  O   O4        1.0  0.992643740713348  0.401284098350029  0.5029985218017416  1.0000
  O   O5        1.0  0.8672454311630549  0.8143690290198871  0.4748788853416277  1.0000
  O   O6        1.0  0.8660804061522384  0.5992272557207228  0.6927239729280563  1.0000
  O   O7        1.0  0.8661713113343804  0.6101188468061969  0.2736091609348672  1.0000
  O   O8        1.0  0.8650062196752646  0.39497533787692074  0.49145432532693256  1.0000
