data_image0
_chemical_formula_structural       NC8NC6H8C6H6C6BrH5Zn2C4O8
_chemical_formula_sum              "N2 C30 H19 Br1 Zn2 O8"
_cell_length_a       17.457602349358154
_cell_length_b       10.681118228259551
_cell_length_c       10.302972455390005
_cell_angle_alpha    85.56070709788946
_cell_angle_beta     92.87591776842113
_cell_angle_gamma    91.68806569353352

_space_group_name_H-M_alt    "P 1"
_space_group_IT_number       1

loop_
  _space_group_symop_operation_xyz
  'x, y, z'

loop_
  _atom_site_type_symbol
  _atom_site_label
  _atom_site_symmetry_multiplicity
  _atom_site_fract_x
  _atom_site_fract_y
  _atom_site_fract_z
  _atom_site_occupancy
  N   N1        1.0  0.7224248044806612  0.40094529642695487  0.6269596259400108  1.0000
  C   C1        1.0  0.6613468725123307  0.3566603846598351  0.6163474052641915  1.0000
  C   C2        1.0  0.5853633421111926  0.30157546468518115  0.6031553415519861  1.0000
  C   C3        1.0  0.5268347181561829  0.34030272991994703  0.6780282835002875  1.0000
  C   C4        1.0  0.4522892704684592  0.2872604147097755  0.6654504550247853  1.0000
  C   C5        1.0  0.3901697504712598  0.32815070254895806  0.744743740211933  1.0000
  C   C6        1.0  0.315623081172967  0.3459595939920028  0.6889986506982926  1.0000
  C   C7        1.0  0.2570944543921412  0.38450950268789463  0.7639795106591862  1.0000
  C   C8        1.0  0.1811096295566492  0.40290261284329776  0.7060196919999728  1.0000
  N   N2        1.0  0.12003074689649582  0.4176845215706153  0.6594201487954652  1.0000
  C   C9        1.0  0.2726203342400227  0.4054849762399799  0.895213809781263  1.0000
  C   C10       1.0  0.3463822995449556  0.3880511774847739  0.9513463694089825  1.0000
  C   C11       1.0  0.4048993214381182  0.349674891276363  0.8768230795816776  1.0000
  C   C12       1.0  0.4375610924752126  0.19483761274991251  0.5765672381684106  1.0000
  C   C13       1.0  0.4960779983064058  0.15637907324250278  0.5020941674313557  1.0000
  C   C14       1.0  0.5698386803780828  0.20952974927494594  0.5152217640602339  1.0000
  H   H1        1.0  0.5391787608346118  0.41281125789120576  0.7446369910222514  1.0000
  H   H2        1.0  0.3032780719504676  0.33152421309739455  0.5870078690905856  1.0000
  H   H3        1.0  0.2277593661444215  0.435264604088234  0.9540302138843308  1.0000
  H   H4        1.0  0.358213597645499  0.4039885856147998  0.05296401387830618  1.0000
  H   H5        1.0  0.4613849403595502  0.3352184384435284  0.9229143018077259  1.0000
  H   H6        1.0  0.3810764385038806  0.15112130840049698  0.5659189125706974  1.0000
  H   H7        1.0  0.4842477652737455  0.08494713337644733  0.4342875345697359  1.0000
  H   H8        1.0  0.6146996924631432  0.17891148486200215  0.45691631602884963  1.0000
  C   C15       1.0  0.9212314526409997  0.04156504513811643  0.6431957733949094  1.0000
  C   C16       1.0  0.9549114966428641  0.9684697084934355  0.7490485821892316  1.0000
  C   C17       1.0  0.9549114849131581  0.8375874698238194  0.7490485218758702  1.0000
  C   C18       1.0  0.921231439759859  0.7770554485526441  0.6431958284652608  1.0000
  C   C19       1.0  0.8875792762101052  0.8501405591817891  0.5374304976187034  1.0000
  C   C20       1.0  0.8875792879013958  0.9810328177728375  0.5374305512646071  1.0000
  H   H9        1.0  0.8871716046707167  0.34662724144428414  0.5361504436744158  1.0000
  H   H10       1.0  0.9813115495819695  0.012356770662563799  0.8320209728968968  1.0000
  H   H11       1.0  0.9813114552547879  0.7838527380956478  0.832020942263269  1.0000
  H   H12       1.0  0.8611757810707963  0.8062988951486406  0.45444727367427373  1.0000
  H   H13       1.0  0.8611757609603362  0.034723333335884954  0.45444726147597647  1.0000
  H   H14       1.0  0.8871718871390469  0.4846979024466915  0.5361501155443094  1.0000
  C   C21       1.0  0.9212314176409636  0.40931022100674785  0.2619532470901216  1.0000
  C   C22       1.0  0.9435997766639748  0.2835452766334796  0.27273044652666933  1.0000
  C   C23       1.0  0.9546957323818341  0.22115907574137905  0.16113868753307514  1.0000
  C   C24       1.0  0.9435999059731774  0.2835452331987385  0.0376480664821357  1.0000
  C   C25       1.0  0.9212314539401164  0.40931022596205713  0.02443833212807789  1.0000
  C   C26       1.0  0.91015525242105  0.4715853469723754  0.13725698171630207  1.0000
  Br  Br1       1.0  0.98512039677066  0.05009700626419744  0.17745191543167627  1.0000
  H   H15       1.0  0.9128124863206583  0.45664719885543725  0.5851983804018837  1.0000
  H   H16       1.0  0.9525040966340141  0.23348054886538283  0.36750411617830725  1.0000
  H   H17       1.0  0.9525043997913056  0.23348060358098288  0.9524232382987119  1.0000
  H   H18       1.0  0.8929038766546342  0.5685800930374325  0.1280071323208376  1.0000
  H   H19       1.0  0.9128114080682999  0.4566466832374898  0.6921646683867628  1.0000
  Zn  Zn1       1.0  0.8371652907336431  0.4057725168833832  0.6363345276339665  1.0000
  Zn  Zn2       1.0  0.0052902463945663225  0.4128470335346859  0.6500558761052702  1.0000
  C   C27       1.0  0.9212297438063084  0.4043212416488551  0.880312200945071  1.0000
  C   C28       1.0  0.9212276292411492  0.414299966126201  0.40607848005519553  1.0000
  C   C29       1.0  0.9212274852458926  0.638031914214948  0.6380220374485626  1.0000
  C   C30       1.0  0.9212298304323188  0.18058778656284602  0.6483687080851459  1.0000
  O   O1        1.0  0.9850289023024795  0.41865384895584357  0.45965540507358993  1.0000
  O   O2        1.0  0.9850314219449566  0.4053358085283527  0.8371490882037698  1.0000
  O   O3        1.0  0.9850287380401241  0.5940600961087579  0.6414979967410319  1.0000
  O   O4        1.0  0.9850315288376467  0.2299295679198452  0.6553063945117577  1.0000
  O   O5        1.0  0.8574239509177667  0.5886899800854024  0.6310840045382273  1.0000
  O   O6        1.0  0.8574266348190492  0.39996719708943673  0.8267350267782714  1.0000
  O   O7        1.0  0.8574241152275022  0.41328519387918683  0.44923978276891696  1.0000
  O   O8        1.0  0.8574267417595386  0.22456090388595928  0.6448908695424029  1.0000
