data_image0
_chemical_formula_structural       NC9NC5H8C7NH5C7H8Zn2C4O8
_chemical_formula_sum              "N3 C32 H21 Zn2 O8"
_cell_length_a       17.807436237873137
_cell_length_b       10.302819778424748
_cell_length_c       9.274345330872308
_cell_angle_alpha    85.12371409326096
_cell_angle_beta     88.93938532988027
_cell_angle_gamma    88.39001009685678

_space_group_name_H-M_alt    "P 1"
_space_group_IT_number       1

loop_
  _space_group_symop_operation_xyz
  'x, y, z'

loop_
  _atom_site_type_symbol
  _atom_site_label
  _atom_site_symmetry_multiplicity
  _atom_site_fract_x
  _atom_site_fract_y
  _atom_site_fract_z
  _atom_site_occupancy
  N   N1        1.0  0.7138422953747837  0.398081119115258  0.39648042877411194  1.0000
  C   C1        1.0  0.653303908823406  0.3629842741054139  0.38422908093416885  1.0000
  C   C2        1.0  0.5780008097501826  0.3193276641069742  0.36898973445850936  1.0000
  C   C3        1.0  0.5603774374317253  0.2487167159083974  0.25229577226130884  1.0000
  C   C4        1.0  0.4872623813721847  0.2062186664643717  0.2374075206572428  1.0000
  C   C5        1.0  0.4307221238442939  0.23395439267525675  0.3391771661902272  1.0000
  C   C6        1.0  0.3530193010745073  0.18890418122127994  0.32344602300537306  1.0000
  C   C7        1.0  0.2907273161978101  0.2704421205257961  0.352273037367389  1.0000
  C   C8        1.0  0.2174698943337729  0.2277409930941503  0.337399990025095  1.0000
  C   C9        1.0  0.1541261972197969  0.31196675103477367  0.3666314260563075  1.0000
  N   N2        1.0  0.1032108562722785  0.3796784251999301  0.39013269324689626  1.0000
  C   C10       1.0  0.2059210255320168  0.10324421408119555  0.29367175595821626  1.0000
  C   C11       1.0  0.2673556779844452  0.021692489216883937  0.26483541777617403  1.0000
  C   C12       1.0  0.3404945707014302  0.06400070510220601  0.2794833757529225  1.0000
  C   C13       1.0  0.4490359233816018  0.30505792291097755  0.4561147674787185  1.0000
  C   C14       1.0  0.5222045445976515  0.3473667957621922  0.47083003795548106  1.0000
  H   H1        1.0  0.603092008190149  0.22677263536896697  0.1725984610307345  1.0000
  H   H2        1.0  0.47471944128478133  0.1531705697499104  0.14525461905311543  1.0000
  H   H3        1.0  0.299096048931606  0.36766207230937065  0.38436530530710966  1.0000
  H   H4        1.0  0.1495032318398007  0.06929750391008405  0.2818972177056758  1.0000
  H   H5        1.0  0.2582939510252736  0.9253013294490464  0.2314090843910741  1.0000
  H   H6        1.0  0.3872203213961263  0.9984176848855394  0.258314086707909  1.0000
  H   H7        1.0  0.4070324630743288  0.326453474725356  0.5372507070965409  1.0000
  H   H8        1.0  0.5352804768344436  0.4016428652639523  0.5618253379693858  1.0000
  C   C15       1.0  0.9085301336891872  0.0076265444758307765  0.3933127386748434  1.0000
  C   C16       1.0  0.8641691951531734  0.9989536778869185  0.5204139945641606  1.0000
  C   C17       1.0  0.8420991913207284  0.877536265605545  0.5836480717280892  1.0000
  C   C18       1.0  0.8641692557716575  0.7636526651786743  0.5204139983054814  1.0000
  C   C19       1.0  0.9085301459012459  0.7701225707854735  0.39331278137037184  1.0000
  C   C20       1.0  0.9304788530182136  0.8926207449108113  0.33042624992521397  1.0000
  C   C21       1.0  0.7966227986296011  0.8697744109045993  0.7139455346599719  1.0000
  N   N3        1.0  0.7600746602386408  0.8635364505176373  0.8186619552814922  1.0000
  H   H9        1.0  0.9253329773727671  0.3382340502605625  0.3451692583617172  1.0000
  H   H10       1.0  0.8466737364555342  0.08639186972049573  0.5705410804549991  1.0000
  H   H11       1.0  0.8466738303623806  0.6702422613939991  0.5705410446388934  1.0000
  H   H12       1.0  0.9646884409264341  0.8984595084371729  0.2324103372605557  1.0000
  H   H13       1.0  0.9253330458574812  0.4452509656813187  0.34516936693259725  1.0000
  C   C22       1.0  0.9102297740550888  0.3917134225808132  0.969482602600451  1.0000
  C   C23       1.0  0.8654946689199745  0.4852767207506119  0.035471479542472206  1.0000
  C   C24       1.0  0.8162677970584018  0.56861148539247  0.9542403876727268  1.0000
  C   C25       1.0  0.8100375029278769  0.5593551592665422  0.8053977482700327  1.0000
  C   C26       1.0  0.8559375789759345  0.46938714007348414  0.7373855936357812  1.0000
  C   C27       1.0  0.9068304800613595  0.3860357524881406  0.8171428960883  1.0000
  C   C28       1.0  0.7582559042122875  0.6509900511889306  0.717713121571848  1.0000
  H   H14       1.0  0.996482420471558  0.10485239963495019  0.09641289168815814  1.0000
  H   H15       1.0  0.867407699777014  0.4921531656415956  0.15125728550132056  1.0000
  H   H16       1.0  0.7823542766737053  0.6395664391109135  0.007955479757851158  1.0000
  H   H17       1.0  0.853093243999907  0.46656150624847537  0.6210399051360911  1.0000
  H   H18       1.0  0.9676364187572929  0.1954651495942037  0.5522561752865314  1.0000
  H   H19       1.0  0.7889383033771903  0.7396816488973974  0.6780889180313405  1.0000
  H   H20       1.0  0.7089515924596606  0.6797662787415686  0.784091833893656  1.0000
  H   H21       1.0  0.737148527802451  0.6040090824251902  0.6234556116774939  1.0000
  Zn  Zn1       1.0  0.8262056165598428  0.39276697902929714  0.3946569564561073  1.0000
  Zn  Zn2       1.0  0.9908474693077605  0.3849819028539474  0.39196803089981125  1.0000
  C   C29       1.0  0.9074713606182155  0.381936915764177  0.6569170050199185  1.0000
  C   C30       1.0  0.9095835225652447  0.39581351827908806  0.12970809463158095  1.0000
  C   C31       1.0  0.9085493382508493  0.6260333345850597  0.3875614770087541  1.0000
  C   C32       1.0  0.9085054884432608  0.1517155417708651  0.3990637005077653  1.0000
  O   O1        1.0  0.9718473597412096  0.39422948799424606  0.1824608001995942  1.0000
  O   O2        1.0  0.9701668817908641  0.3776112767243829  0.6021230517024123  1.0000
  O   O3        1.0  0.9710365140738416  0.5747222517174702  0.38461657085457523  1.0000
  O   O4        1.0  0.9709776717110872  0.19711852566991594  0.39996717374871027  1.0000
  O   O5        1.0  0.8460753579723624  0.5806303588714568  0.38665781451721504  1.0000
  O   O6        1.0  0.8452057259945811  0.38352094422383787  0.6041642184100391  1.0000
  O   O7        1.0  0.8468862109535438  0.40013912187191103  0.18450023166085927  1.0000
  O   O8        1.0  0.8460165224864126  0.20302814953695236  0.40200671341870353  1.0000
