data_image0
_chemical_formula_structural       NC8NC6H8C6SCH8C6FH5Zn2C4O8
_chemical_formula_sum              "N2 C31 H21 S1 F1 Zn2 O8"
_cell_length_a       17.457602349358154
_cell_length_b       10.302809429070853
_cell_length_c       9.275646106892307
_cell_angle_alpha    84.95236572159423
_cell_angle_beta     92.91404810424501
_cell_angle_gamma    91.68806441137123

_space_group_name_H-M_alt    "P 1"
_space_group_IT_number       1

loop_
  _space_group_symop_operation_xyz
  'x, y, z'

loop_
  _atom_site_type_symbol
  _atom_site_label
  _atom_site_symmetry_multiplicity
  _atom_site_fract_x
  _atom_site_fract_y
  _atom_site_fract_z
  _atom_site_occupancy
  N   N1        1.0  0.7221032803723471  0.46700774373073695  0.47351442533957955  1.0000
  C   C1        1.0  0.6610228643369422  0.4212097406102442  0.46171623683848906  1.0000
  C   C2        1.0  0.5850362459897878  0.3642426357472617  0.44704989516610816  1.0000
  C   C3        1.0  0.5265251529207453  0.40359462639551347  0.5302903020807432  1.0000
  C   C4        1.0  0.4519767610741441  0.3487385878931082  0.5163068395389114  1.0000
  C   C5        1.0  0.3898758069522859  0.390285954171921  0.6044615874941157  1.0000
  C   C6        1.0  0.31531608455944893  0.4093423844842401  0.5424866684317988  1.0000
  C   C7        1.0  0.2568050139369009  0.4485093570485956  0.6258470538321237  1.0000
  C   C8        1.0  0.1808066174150822  0.46819504204322193  0.5614098971163646  1.0000
  N   N2        1.0  0.1197168231545888  0.4840159534439785  0.5096025909902382  1.0000
  C   C9        1.0  0.2723616220640219  0.46885755132717666  0.7717475188290126  1.0000
  C   C10       1.0  0.3461367311833116  0.45018586067124833  0.8341532099024471  1.0000
  C   C11       1.0  0.40463630405562817  0.411194013301581  0.75130153063692  1.0000
  C   C12       1.0  0.437227772638879  0.25386860530911015  0.41749043983155265  1.0000
  C   C13       1.0  0.4957272412095606  0.214790949611797  0.3346945919351476  1.0000
  C   C14       1.0  0.5694909961669883  0.269753473508912  0.34928926228854973  1.0000
  H   H1        1.0  0.5388847907982005  0.4780562977362275  0.6043428943599638  1.0000
  H   H2        1.0  0.3029471943421139  0.3954630224227489  0.42909784704622655  1.0000
  H   H3        1.0  0.227514425359145  0.499104337872744  0.8371369811824683  1.0000
  H   H4        1.0  0.3579918228812141  0.46562637635031145  0.9471271937299135  1.0000
  H   H5        1.0  0.4611327155476296  0.39571592118217347  0.8025437080084066  1.0000
  H   H6        1.0  0.3807406261362434  0.20866047277711708  0.4056521113860798  1.0000
  H   H7        1.0  0.48388113246297587  0.14145815399812744  0.2593101992575684  1.0000
  H   H8        1.0  0.6143383565173304  0.23863181546705814  0.284467858355024  1.0000
  C   C15       1.0  0.9209137367053812  0.09425851241738825  0.49156511333844155  1.0000
  C   C16       1.0  0.9651464864282059  0.10503224748623352  0.36858137900120225  1.0000
  C   C17       1.0  0.986944670195028  0.9934064402750288  0.3072059727420555  1.0000
  C   C18       1.0  0.9651463896718511  0.8698810861704904  0.36858129265246165  1.0000
  C   C19       1.0  0.9209137061235048  0.8567553725509538  0.491565102985827  1.0000
  C   C20       1.0  0.8989936218965665  0.9695918518165705  0.5524268105163135  1.0000
  S   S1        1.0  0.04360012048402506  0.008666530185551746  0.15025756411103997  1.0000
  C   C21       1.0  0.9604336753464001  0.014548969604120776  0.023597275258701256  1.0000
  H   H9        1.0  0.9042193144211477  0.41751294892593727  0.537878407965817  1.0000
  H   H10       1.0  0.9827152583102637  0.1998783941050064  0.31973023239620324  1.0000
  H   H11       1.0  0.9827150889796441  0.7845279944520896  0.31973010455554185  1.0000
  H   H12       1.0  0.8648624125696676  0.9603751686738435  0.6472736740548934  1.0000
  H   H13       1.0  0.9042180608673954  0.5244971425424317  0.5378767070706938  1.0000
  H   H14       1.0  0.9252296090567815  0.9234034062890822  0.03964810288971776  1.0000
  H   H15       1.0  0.9252303274544144  0.09963840371490762  0.039647643429727264  1.0000
  H   H16       1.0  0.980220087014667  0.02443053909759363  0.9113115106303513  1.0000
  C   C22       1.0  0.9208244267348398  0.4795666721943834  0.06771653395246391  1.0000
  C   C23       1.0  0.9910735298661781  0.4961407991775564  0.1461533294979671  1.0000
  C   C24       1.0  0.06037163791245659  0.5004837222903937  0.07699714144571757  1.0000
  C   C25       1.0  0.06063767268375564  0.48819848277067224  0.9286450336678573  1.0000
  C   C26       1.0  0.9915908253160338  0.47384051083523504  0.8483853979812892  1.0000
  C   C27       1.0  0.9210029816461113  0.4714472168025676  0.9154136235180772  1.0000
  F   F1        1.0  0.12755967993423978  0.5150791544678202  0.15453047040094603  1.0000
  H   H17       1.0  0.7429197166149912  0.36647944681762534  0.16472247479954505  1.0000
  H   H18       1.0  0.992435641448213  0.5026556692052488  0.2622042087471086  1.0000
  H   H19       1.0  0.11443904602602828  0.4910430073769698  0.8752127874904438  1.0000
  H   H20       1.0  0.9933403848559392  0.4677097239677128  0.732611266071177  1.0000
  H   H21       1.0  0.8005613320210453  0.40062226823186275  0.6296363585377076  1.0000
  Zn  Zn1       1.0  0.8368459616821503  0.47191238418625203  0.4839370241016441  1.0000
  Zn  Zn2       1.0  0.004974130084815398  0.4791005552083176  0.4991918090844636  1.0000
  C   C28       1.0  0.9209675424230334  0.46780976867680324  0.7551805717761992  1.0000
  C   C29       1.0  0.9208543853280714  0.4832048859787792  0.22794856965613852  1.0000
  C   C30       1.0  0.9209085471512153  0.712682146005108  0.48581308386119004  1.0000
  C   C31       1.0  0.9209133232457811  0.2383309456305711  0.49731612931681535  1.0000
  O   O1        1.0  0.9846682034073965  0.4871481131762323  0.28751301597648293  1.0000
  O   O2        1.0  0.9847591138528405  0.4693212215160132  0.7071937387984837  1.0000
  O   O3        1.0  0.9847106146356699  0.6670587118944318  0.48967750844621394  1.0000
  O   O4        1.0  0.9847166452310129  0.2894106306689561  0.5050291329023637  1.0000
  O   O5        1.0  0.8571033891620587  0.6616023062741299  0.47809969507044237  1.0000
  O   O6        1.0  0.8571518883594442  0.4638663764641304  0.6956158484637438  1.0000
  O   O7        1.0  0.857060977599449  0.4816932395056457  0.27593339032556896  1.0000
  O   O8        1.0  0.8571094194427258  0.28395574667574297  0.493449615464538  1.0000
