data_image0
_chemical_formula_structural       NC9NC5H8C6BrH5C6BrH5Zn2C4O8
_chemical_formula_sum              "N2 C30 H18 Br2 Zn2 O8"
_cell_length_a       17.807436237873137
_cell_length_b       10.302969083221269
_cell_length_c       10.302972455390005
_cell_angle_alpha    85.5606971791834
_cell_angle_beta     89.39215201277248
_cell_angle_gamma    88.39001038669201

_space_group_name_H-M_alt    "P 1"
_space_group_IT_number       1

loop_
  _space_group_symop_operation_xyz
  'x, y, z'

loop_
  _atom_site_type_symbol
  _atom_site_label
  _atom_site_symmetry_multiplicity
  _atom_site_fract_x
  _atom_site_fract_y
  _atom_site_fract_z
  _atom_site_occupancy
  N   N1        1.0  0.7074118086971652  0.3873205242466957  0.5576062258645886  1.0000
  C   C1        1.0  0.6468242912180987  0.3521421280280328  0.5465859328426952  1.0000
  C   C2        1.0  0.5714600786054103  0.3083840771797701  0.5328778848941667  1.0000
  C   C3        1.0  0.5533687356938753  0.2369925367395822  0.42790966296892696  1.0000
  C   C4        1.0  0.4801939740725049  0.1943953813000907  0.4145174307249384  1.0000
  C   C5        1.0  0.424061836945046  0.22281235765477803  0.5060609793251465  1.0000
  C   C6        1.0  0.3462959284097034  0.1776574314806747  0.49191055197929034  1.0000
  C   C7        1.0  0.2841195469693543  0.2593872731820204  0.5178409354366973  1.0000
  C   C8        1.0  0.2108024805154043  0.21658714453314287  0.5044623797227299  1.0000
  C   C9        1.0  0.1475760086741849  0.3010074747655527  0.5307565470034246  1.0000
  N   N2        1.0  0.0967549136081625  0.368875579729981  0.5518963312471759  1.0000
  C   C10       1.0  0.1990782507085992  0.09179927693934342  0.46512809906802755  1.0000
  C   C11       1.0  0.2603972623339091  0.010055587426977208  0.4391893286758395  1.0000
  C   C12       1.0  0.3335948969778573  0.0524613025728069  0.452365412685118  1.0000
  C   C13       1.0  0.4428445841275326  0.2946981048915551  0.6112483587369397  1.0000
  C   C14       1.0  0.5160722172095588  0.33710492785198687  0.624484991502049  1.0000
  H   H1        1.0  0.5957637013432533  0.21451496240000578  0.3562205591903522  1.0000
  H   H2        1.0  0.46728147890256544  0.14073081375219254  0.3316243135696968  1.0000
  H   H3        1.0  0.2926169776357098  0.3568207709328628  0.5467084682338148  1.0000
  H   H4        1.0  0.1426132382119774  0.05777419257124139  0.45453670430947235  1.0000
  H   H5        1.0  0.251201487528004  0.9134419341396515  0.40912178083846906  1.0000
  H   H6        1.0  0.38023575358175  0.9867374402951667  0.43332328268894393  1.0000
  H   H7        1.0  0.4011664981666034  0.3166367943616504  0.6842315336803078  1.0000
  H   H8        1.0  0.5295130622779137  0.3919896968079013  0.706336825834541  1.0000
  C   C15       1.0  0.9020869423637685  0.9968503857119938  0.5547568993949066  1.0000
  C   C16       1.0  0.9799754130776273  0.9902466659937742  0.5754942087332369  1.0000
  C   C17       1.0  0.018612286837607295  0.870033014921665  0.585780861967699  1.0000
  C   C18       1.0  0.9799754720645951  0.7551643036012488  0.5754939615259775  1.0000
  C   C19       1.0  0.902086953914393  0.7593354025223784  0.5547568131550125  1.0000
  C   C20       1.0  0.8635188401110445  0.8807606049695297  0.5444883565234762  1.0000
  Br  Br1       1.0  0.12455401458624582  0.8627051746078973  0.6139875240270338  1.0000
  H   H9        1.0  0.8727704744790019  0.326637628435797  0.5469509883927695  1.0000
  H   H10       1.0  0.010981340472031365  0.0781013434048623  0.58374948235059  1.0000
  H   H11       1.0  0.010981428873970911  0.6630204050800409  0.5837488962444197  1.0000
  H   H12       1.0  0.803448256020988  0.884915552881925  0.5284951195644294  1.0000
  H   H13       1.0  0.8727702593272725  0.43360364640726473  0.5469529099702524  1.0000
  C   C21       1.0  0.9020869252979493  0.37809289420130665  0.17351431000077944  1.0000
  C   C22       1.0  0.9239904306849479  0.24569806921200743  0.18214415837287778  1.0000
  C   C23       1.0  0.9348557930295996  0.18002308586539195  0.06948719328623665  1.0000
  C   C24       1.0  0.9239905573069109  0.24569801254071688  0.9470617659146034  1.0000
  C   C25       1.0  0.902086960842752  0.37809289607029317  0.9359993915539975  1.0000
  C   C26       1.0  0.8912409421700799  0.4436509440056551  0.049881350842256866  1.0000
  Br  Br2       1.0  0.9646481796616143  0.9999432478599154  0.08287966891196175  1.0000
  H   H14       1.0  0.8938429541002717  0.427925277618703  0.49756765642757617  1.0000
  H   H15       1.0  0.9327097033070474  0.19299411741867378  0.2760630178462826  1.0000
  H   H16       1.0  0.9327100001642825  0.19299414684770233  0.8609821108634246  1.0000
  H   H17       1.0  0.8743480801749584  0.5457589117327646  0.04228762472691372  1.0000
  H   H18       1.0  0.8938418982555759  0.4279248401566118  0.6045340479253216  1.0000
  Zn  Zn1       1.0  0.8197678173079741  0.3819942475091431  0.5559659819225664  1.0000
  Zn  Zn2       1.0  0.9843988868006482  0.3741912736638211  0.5535472482645973  1.0000
  C   C27       1.0  0.9020852860146313  0.3729209553325694  0.7918734254461814  1.0000
  C   C28       1.0  0.9020832158601857  0.3832661187300963  0.31763990575253587  1.0000
  C   C29       1.0  0.9020830853258232  0.615209700259695  0.5495834365424914  1.0000
  C   C30       1.0  0.9020853603718949  0.14097581665972303  0.559929964697417  1.0000
  O   O1        1.0  0.9645586038293326  0.38203544829345293  0.3650918754731125  1.0000
  O   O2        1.0  0.96456107048674  0.3682283697585216  0.7425853191228291  1.0000
  O   O3        1.0  0.9645584511878836  0.5638796353648239  0.546934451214961  1.0000
  O   O4        1.0  0.9645611669507512  0.18638419463703926  0.5607426468639267  1.0000
  O   O5        1.0  0.8396054809773669  0.5698013292001107  0.5487705841418036  1.0000
  O   O6        1.0  0.8396081002728176  0.3741516234012412  0.7444213828270474  1.0000
  O   O7        1.0  0.8396056336652798  0.38795865669221263  0.36692637829327457  1.0000
  O   O8        1.0  0.839608196783632  0.1923073937500952  0.5625772470197097  1.0000
