data_image0
_chemical_formula_structural       NC9NC5H8C6SCH8C6H6Zn2C4O8
_chemical_formula_sum              "N2 C31 H22 S1 Zn2 O8"
_cell_length_a       17.807436237873137
_cell_length_b       10.302809429070853
_cell_length_c       10.681121600428288
_cell_angle_alpha    85.56070011221655
_cell_angle_beta     89.39214167786866
_cell_angle_gamma    88.39000425637651

_space_group_name_H-M_alt    "P 1"
_space_group_IT_number       1

loop_
  _space_group_symop_operation_xyz
  'x, y, z'

loop_
  _atom_site_type_symbol
  _atom_site_label
  _atom_site_symmetry_multiplicity
  _atom_site_fract_x
  _atom_site_fract_y
  _atom_site_fract_z
  _atom_site_occupancy
  N   N1        1.0  0.7074118737031149  0.38734198572428546  0.6086720633720191  1.0000
  C   C1        1.0  0.646824359562662  0.35216304406730714  0.5980419262941181  1.0000
  C   C2        1.0  0.5714601511028433  0.30840431475384666  0.5848191899772353  1.0000
  C   C3        1.0  0.5533688236218469  0.23701166524485706  0.48356720891144045  1.0000
  C   C4        1.0  0.4801940660481854  0.19441384933851702  0.47064910735105925  1.0000
  C   C5        1.0  0.42406191756472617  0.22283126844569567  0.5589516942920536  1.0000
  C   C6        1.0  0.3462960133153251  0.1776756421478265  0.5453022403171535  1.0000
  C   C7        1.0  0.2841196240841263  0.2594067510725573  0.5703145997653845  1.0000
  C   C8        1.0  0.2108025616890531  0.21660595881175615  0.5574096905318091  1.0000
  C   C9        1.0  0.1475760818518383  0.3010275979709083  0.5827729546617968  1.0000
  N   N2        1.0  0.0967549803574743  0.36889675522190846  0.6031643184839963  1.0000
  C   C10       1.0  0.1990783437506402  0.0918161563854134  0.5194679775362503  1.0000
  C   C11       1.0  0.2603973631685382  0.010071199434847244  0.4944475280797118  1.0000
  C   C12       1.0  0.33359499379931  0.05247757207519688  0.5071571338048078  1.0000
  C   C13       1.0  0.44284464926303  0.29471813241558587  0.660415073916029  1.0000
  C   C14       1.0  0.5160722783254669  0.3371256128892801  0.6731830847587865  1.0000
  H   H1        1.0  0.5957637981781716  0.21453374071077036  0.41441615002696897  1.0000
  H   H2        1.0  0.4672815828952651  0.14074844800688813  0.390690695498664  1.0000
  H   H3        1.0  0.2926170456769782  0.3568417594791995  0.5981601236437355  1.0000
  H   H4        1.0  0.1426133344760936  0.057790544462765325  0.5092515542544429  1.0000
  H   H5        1.0  0.251201597510976  0.9134560481654546  0.465444473924721  1.0000
  H   H6        1.0  0.380235856478637  0.9867526907943894  0.4887891599813212  1.0000
  H   H7        1.0  0.4011665542930174  0.31665716376287234  0.7308143892936301  1.0000
  H   H8        1.0  0.5295131114101556  0.3920112345110287  0.7521370788871846  1.0000
  C   C15       1.0  0.9020870319091416  0.9968657960876924  0.6059236012901035  1.0000
  C   C16       1.0  0.945425935414905  0.002476660006768716  0.4951203555337469  1.0000
  C   C17       1.0  0.9667837845226395  0.8882991837384967  0.4398492453756522  1.0000
  C   C18       1.0  0.9454258406871061  0.7673255065739153  0.49512028957280485  1.0000
  C   C19       1.0  0.9020870019649376  0.7593626588753859  0.6059235951395607  1.0000
  C   C20       1.0  0.8806098916600283  0.8747568525762035  0.6607602812115312  1.0000
  S   S1        1.0  0.022294234577001415  0.8969519375749535  0.29842608158900963  1.0000
  C   C21       1.0  0.940882244466965  0.9091067973770578  0.1962302509592071  1.0000
  H   H9        1.0  0.8857299883971466  0.32206782154596936  0.6476534066760753  1.0000
  H   H10       1.0  0.962639681892098  0.09527213782506472  0.4511076087634698  1.0000
  H   H11       1.0  0.9626395161067952  0.6799217521911601  0.4511075135224385  1.0000
  H   H12       1.0  0.8471684091973279  0.8695234958491992  0.7462150640768603  1.0000
  H   H13       1.0  0.8857287612450329  0.4290521117040753  0.647652046970465  1.0000
  H   H14       1.0  0.9064064586687174  0.8212849289789753  0.2134167592461984  1.0000
  H   H15       1.0  0.9064071622317915  0.9975198573132312  0.2134162940694433  1.0000
  H   H16       1.0  0.9602806334552637  0.9161292296492675  0.09697290533375624  1.0000
  C   C22       1.0  0.9020870311215187  0.3781142026903186  0.2381783474379191  1.0000
  C   C23       1.0  0.8483144181082666  0.30845558952132257  0.17751653528143518  1.0000
  C   C24       1.0  0.8483143712029118  0.3084556749909406  0.04663439599206476  1.0000
  C   C25       1.0  0.9020869720620062  0.3781142691302841  0.973668783949722  1.0000
  C   C26       1.0  0.9558152027146901  0.4477151476883334  0.034330643599425725  1.0000
  C   C27       1.0  0.9558151931028249  0.44771512801190494  0.16522294239844326  1.0000
  H   H17       1.0  0.9564653970695826  0.44855822531524625  0.5306668452942309  1.0000
  H   H18       1.0  0.8061649054982951  0.2538538761697202  0.23114962372032477  1.0000
  H   H19       1.0  0.8061648898081311  0.25385393802574163  0.0026455947167427496  1.0000
  H   H20       1.0  0.9979702195183267  0.5023240585100377  0.9807418126650509  1.0000
  H   H21       1.0  0.9979701816665436  0.5023240147909482  0.20916618068491544  1.0000
  H   H22       1.0  0.9564656315427752  0.4485577618775629  0.6687378162639401  1.0000
  Zn  Zn1       1.0  0.8197678828164487  0.3820156264039598  0.6070898896548376  1.0000
  Zn  Zn2       1.0  0.9843989530469737  0.3742125315747995  0.6047567874119768  1.0000
  C   C28       1.0  0.9020853273682473  0.37294219975647747  0.8346453824605973  1.0000
  C   C29       1.0  0.9020833062612628  0.3832875111360514  0.37720139204165437  1.0000
  C   C30       1.0  0.9020831370247478  0.6152346930758423  0.6009333157766414  1.0000
  C   C31       1.0  0.9020854404277526  0.1409934606493095  0.6109135262870502  1.0000
  O   O1        1.0  0.9645586893348427  0.38205682286219145  0.4229733956601458  1.0000
  O   O2        1.0  0.9645611172960347  0.3682495401805248  0.7871022477330631  1.0000
  O   O3        1.0  0.9645585063510008  0.5639038326616197  0.5983781122698217  1.0000
  O   O4        1.0  0.964561244102448  0.1864025423311677  0.6116974380233751  1.0000
  O   O5        1.0  0.8396055355804698  0.5698256183118184  0.6001492398330253  1.0000
  O   O6        1.0  0.8396081465220085  0.37417288566232676  0.7888733085244128  1.0000
  O   O7        1.0  0.8396057186108523  0.3879801230992923  0.42474295082820457  1.0000
  O   O8        1.0  0.8396082733753818  0.1923258332824238  0.6134670870810326  1.0000
