data_image0
_chemical_formula_structural       NC9NC5H8C6SCH8C6SCH8Zn2C4O8
_chemical_formula_sum              "N2 C32 H24 S2 Zn2 O8"
_cell_length_a       17.807436237873137
_cell_length_b       10.302809429070853
_cell_length_c       10.302812801239593
_cell_angle_alpha    85.56069637758505
_cell_angle_beta     89.39214003622364
_cell_angle_gamma    88.39000425637651

_space_group_name_H-M_alt    "P 1"
_space_group_IT_number       1

loop_
  _space_group_symop_operation_xyz
  'x, y, z'

loop_
  _atom_site_type_symbol
  _atom_site_label
  _atom_site_symmetry_multiplicity
  _atom_site_fract_x
  _atom_site_fract_y
  _atom_site_fract_z
  _atom_site_occupancy
  N   N1        1.0  0.7074118961441833  0.3873420789619497  0.5575839100947282  1.0000
  C   C1        1.0  0.6468243821751866  0.35216313801733357  0.5465634451450885  1.0000
  C   C2        1.0  0.5714601739286406  0.30840440958997406  0.5328551833371131  1.0000
  C   C3        1.0  0.5533688480807621  0.23701176686622727  0.4278853320322895  1.0000
  C   C4        1.0  0.48019409071545976  0.19441395182557342  0.41449289086066776  1.0000
  C   C5        1.0  0.4240619408077464  0.22283136501529288  0.5060378593981645  1.0000
  C   C6        1.0  0.3462960367785008  0.17767573963212002  0.49188721129177093  1.0000
  C   C7        1.0  0.2841196471438716  0.25940684688068716  0.5178179992568726  1.0000
  C   C8        1.0  0.2108025849569448  0.21660605548468825  0.5044392348209414  1.0000
  C   C9        1.0  0.1475761047106397  0.30102769294416065  0.5307338123324639  1.0000
  N   N2        1.0  0.0967550028873785  0.3688968488286659  0.5518739263903605  1.0000
  C   C10       1.0  0.19907836763050313  0.09181625560095008  0.46510434053570204  1.0000
  C   C11       1.0  0.2603973874519621  0.010071300327089805  0.43916516550537765  1.0000
  C   C12       1.0  0.3335950178777375  0.052477672115725404  0.4523414550857201  1.0000
  C   C13       1.0  0.4428446708695227  0.29471822218577337  0.6112268716022093  1.0000
  C   C14       1.0  0.5160722997260212  0.33712570180383916  0.6244637108770055  1.0000
  H   H1        1.0  0.5957638237524411  0.2145338469661906  0.3561951162728838  1.0000
  H   H2        1.0  0.46728160885220826  0.14074855585223234  0.33159848707352824  1.0000
  H   H3        1.0  0.2926170682875961  0.35684185342130514  0.5466859825817227  1.0000
  H   H4        1.0  0.1426133585207396  0.05779064436293946  0.45451278053391175  1.0000
  H   H5        1.0  0.2512016222621972  0.9134561510012917  0.4090971485639927  1.0000
  H   H6        1.0  0.380235880853326  0.986752792065819  0.4332990278588458  1.0000
  H   H7        1.0  0.4011665747640224  0.31665724881535984  0.6842111785694596  1.0000
  H   H8        1.0  0.5295131315372417  0.39201131813460943  0.7063168157381776  1.0000
  C   C15       1.0  0.9020870543945406  0.9968658895095408  0.5547345272676585  1.0000
  C   C16       1.0  0.9454259596874767  0.002476760853922899  0.4398626985023666  1.0000
  C   C17       1.0  0.9667838096866921  0.8882992882895581  0.38256208913475676  1.0000
  C   C18       1.0  0.9454258649596786  0.767325607421074  0.4398626301194051  1.0000
  C   C19       1.0  0.9020870244503366  0.7593627522972344  0.5547345208912744  1.0000
  C   C20       1.0  0.880609913260953  0.8747569423232574  0.6115847545601205  1.0000
  S   S1        1.0  0.022294262022103162  0.896952051603267  0.2359460099481674  1.0000
  C   C21       1.0  0.9408822735604082  0.9091069182538646  0.12999765187888213  1.0000
  H   H9        1.0  0.8857300102094753  0.3220679121713601  0.5979966088608899  1.0000
  H   H10       1.0  0.962639706874562  0.0952722416216647  0.3942338482284078  1.0000
  H   H11       1.0  0.9626395410892606  0.6799218559877663  0.3942337494902224  1.0000
  H   H12       1.0  0.8471684294199315  0.8695235798696344  0.7001773505393607  1.0000
  H   H13       1.0  0.8857287830573835  0.42905220232955693  0.5979951992282662  1.0000
  H   H14       1.0  0.9064064874849552  0.8212850487040553  0.14781523135085628  1.0000
  H   H15       1.0  0.906407191048037  0.9975199770383426  0.1478147490932813  1.0000
  H   H16       1.0  0.9602806641496529  0.91612935717765  0.027095677008438512  1.0000
  C   C22       1.0  0.9020870595383707  0.37811432075603957  0.1734860399927849  1.0000
  C   C23       1.0  0.8767509406562269  0.508785739574434  0.1626603194477536  1.0000
  C   C24       1.0  0.8639508049676073  0.5736213980856151  0.040301037941055995  1.0000
  C   C25       1.0  0.876750872927742  0.5087856064971603  0.9275091507517943  1.0000
  C   C26       1.0  0.9020870108085712  0.3781143143153376  0.9359829443369745  1.0000
  C   C27       1.0  0.9146081163816897  0.3134069217622  0.059513469805113184  1.0000
  S   S2        1.0  0.8317344602977933  0.7406622760709394  0.027962170881123294  1.0000
  C   C28       1.0  0.7329140736257768  0.6999834124924884  0.032923569025040456  1.0000
  H   H17       1.0  0.9116071013983233  0.32885527549832183  0.5048805041582061  1.0000
  H   H18       1.0  0.8666864083862383  0.5606888451500753  0.2489269690117859  1.0000
  H   H19       1.0  0.8666862579755965  0.5606886652556666  0.8335766582355633  1.0000
  H   H20       1.0  0.9341373646502011  0.21260630307977935  0.06695760879310342  1.0000
  H   H21       1.0  0.9116057025565436  0.3288546677331965  0.611864939159033  1.0000
  H   H22       1.0  0.7195922913163267  0.6428581769710011  0.9494726227619257  1.0000
  H   H23       1.0  0.7195926130791025  0.6428594738089024  0.1257073100764836  1.0000
  H   H24       1.0  0.6981437969436433  0.7912426125842504  0.026496984192872608  1.0000
  Zn  Zn1       1.0  0.8197679052830361  0.38201571974765103  0.5559436405604163  1.0000
  Zn  Zn2       1.0  0.9843989755511925  0.3742126250748401  0.5535248691651888  1.0000
  C   C29       1.0  0.9020853461645367  0.3729422778508933  0.7918547406888647  1.0000
  C   C30       1.0  0.9020833324357783  0.38328761988536053  0.3176138700499085  1.0000
  C   C31       1.0  0.9020831595906363  0.6152347868321066  0.5495610035222191  1.0000
  C   C32       1.0  0.9020854628326679  0.14099355373676548  0.5599076772587819  1.0000
  O   O1        1.0  0.9645587147710902  0.3820569285441615  0.3650665753025073  1.0000
  O   O2        1.0  0.9645611368591591  0.3682496214609694  0.7425658701859608  1.0000
  O   O3        1.0  0.9645585289581029  0.563903926589117  0.5469119755294714  1.0000
  O   O4        1.0  0.9645612664947195  0.1864026353660917  0.5607203734404462  1.0000
  O   O5        1.0  0.8396055581590047  0.5698257121206263  0.5487481371037377  1.0000
  O   O6        1.0  0.839608166056567  0.3741729668240865  0.7444019625365779  1.0000
  O   O7        1.0  0.8396057440185581  0.3879802286626781  0.36690110674487153  1.0000
  O   O8        1.0  0.83960829573911  0.1923259261987571  0.5625550022199399  1.0000
