data_image0
_chemical_formula_structural       NC8NC6H8C6ClH5C7NH5Zn2C4O8
_chemical_formula_sum              "N3 C31 H18 Cl1 Zn2 O8"
_cell_length_a       17.457602349358154
_cell_length_b       10.30297070629231
_cell_length_c       10.302823150593486
_cell_angle_alpha    85.56070101248984
_cell_angle_beta     92.87590926728866
_cell_angle_gamma    91.68807172504815

_space_group_name_H-M_alt    "P 1"
_space_group_IT_number       1

loop_
  _space_group_symop_operation_xyz
  'x, y, z'

loop_
  _atom_site_type_symbol
  _atom_site_label
  _atom_site_symmetry_multiplicity
  _atom_site_fract_x
  _atom_site_fract_y
  _atom_site_fract_z
  _atom_site_occupancy
  N   N1        1.0  0.7224250153625912  0.4523639728940778  0.6269396848345521  1.0000
  C   C1        1.0  0.6613470815241779  0.40645368290639805  0.6163273118448898  1.0000
  C   C2        1.0  0.5853635487961601  0.3493469946666117  0.6031350587922986  1.0000
  C   C3        1.0  0.5268349206525146  0.3894956523540958  0.6780090843617796  1.0000
  C   C4        1.0  0.45228947071309  0.33450653808969744  0.6654310753789205  1.0000
  C   C5        1.0  0.3901699462721329  0.37689760698044683  0.744725508166048  1.0000
  C   C6        1.0  0.3156232830544729  0.3953601382076801  0.6889796103322978  1.0000
  C   C7        1.0  0.257094652064166  0.43532492987179516  0.7639615554839081  1.0000
  C   C8        1.0  0.1811098335430563  0.45439312242060237  0.7060008963944162  1.0000
  N   N2        1.0  0.12003095595926211  0.46971757160271377  0.6594006774863543  1.0000
  C   C9        1.0  0.272620521591686  0.4570702517664502  0.8951977554749913  1.0000
  C   C10       1.0  0.3463824808054026  0.4389965801397535  0.9513311290248596  1.0000
  C   C11       1.0  0.4048995068784443  0.3992117833559006  0.8768067606312306  1.0000
  C   C12       1.0  0.4375612947424831  0.23869156968839111  0.5765465736596163  1.0000
  C   C13       1.0  0.49607820474387293  0.1988215006777896  0.5020724250866047  1.0000
  C   C14       1.0  0.569838889025318  0.2539229528664504  0.5152002101853075  1.0000
  H   H1        1.0  0.5391789620214067  0.4646654393584133  0.744618754647904  1.0000
  H   H2        1.0  0.3032782819711077  0.38039494634224114  0.5869873513732946  1.0000
  H   H3        1.0  0.2277595501648978  0.4879428701593669  0.9540150108372762  1.0000
  H   H4        1.0  0.3582137708953308  0.45551892783070036  0.05295024538944659  1.0000
  H   H5        1.0  0.4613851207893197  0.38422473523910505  0.9228986511846724  1.0000
  H   H6        1.0  0.3810766389403842  0.19337075658926928  0.5658980952062247  1.0000
  H   H7        1.0  0.4842479731954842  0.12476781563432282  0.43426481206775747  1.0000
  H   H8        1.0  0.6146999043429388  0.22218091758487835  0.45689391832590975  1.0000
  C   C15       1.0  0.9212316392585445  0.07979346912115592  0.6431760793560561  1.0000
  C   C16       1.0  0.00045342966414052555  0.0801080933090661  0.674650140494319  1.0000
  C   C17       1.0  0.039761167600456115  0.9633073575235487  0.6902666388242411  1.0000
  C   C18       1.0  0.0004534290516420292  0.8450001246123247  0.6746500793862202  1.0000
  C   C19       1.0  0.9212316474462788  0.8422784112913216  0.6431761543437209  1.0000
  C   C20       1.0  0.8820069227003342  0.9602843023878268  0.6275925171081269  1.0000
  Cl  Cl1       1.0  0.13872805888494422  0.9652039150369216  0.7295851505482165  1.0000
  H   H9        1.0  0.8913901783327424  0.406978074023278  0.6313196249187025  1.0000
  H   H10       1.0  0.0319618610242709  0.1707584915036069  0.6871680280585126  1.0000
  H   H11       1.0  0.03196183068390113  0.755557297351133  0.6871679323051558  1.0000
  H   H12       1.0  0.8209086738145233  0.959113327462833  0.6033187332024106  1.0000
  H   H13       1.0  0.8913901745912615  0.5139501071842076  0.6313198697300815  1.0000
  C   C21       1.0  0.9212316614634051  0.46103594029364126  0.2619280168419209  1.0000
  C   C22       1.0  0.8408347859606355  0.46693689273637506  0.25353487006261344  1.0000
  C   C23       1.0  0.8008365825624809  0.46987256562678104  0.13225669267562745  1.0000
  C   C24       1.0  0.8408347710422355  0.4669368073110991  0.018233874996109067  1.0000
  C   C25       1.0  0.9212316610053088  0.4610359335289136  0.024424183419448298  1.0000
  C   C26       1.0  0.9610100332764241  0.4581162592040524  0.1467838397891521  1.0000
  C   C27       1.0  0.7184180256608693  0.4759216977375984  0.12478158455308619  1.0000
  N   N3        1.0  0.6521804353296273  0.4807833822709151  0.11877400535542226  1.0000
  H   H14       1.0  0.9516843263790946  0.45880110629388104  0.5924293927600295  1.0000
  H   H15       1.0  0.8091272817195803  0.4692641520334213  0.34108335825108504  1.0000
  H   H16       1.0  0.8091273121475062  0.4692640577715692  0.9249338242375122  1.0000
  H   H17       1.0  0.023009207735704473  0.45356567936142866  0.1524069892740707  1.0000
  H   H18       1.0  0.9516843006740534  0.4588008967639787  0.6994466903538314  1.0000
  Zn  Zn1       1.0  0.8371655010897229  0.4573683650294822  0.6363147222103114  1.0000
  Zn  Zn2       1.0  0.005290455981587172  0.4647025350384  0.6500362692687052  1.0000
  C   C28       1.0  0.9212299324071967  0.45586380598874676  0.8802959307557672  1.0000
  C   C29       1.0  0.9212278605834421  0.4662088122656973  0.4060553379882428  1.0000
  C   C30       1.0  0.9212277102019754  0.6981523258532563  0.6380022488452415  1.0000
  C   C31       1.0  0.9212300254193156  0.22391873009294394  0.6483490844331952  1.0000
  O   O1        1.0  0.9850291291641196  0.47072249071352834  0.4596330391822854  1.0000
  O   O2        1.0  0.9850316144427725  0.4569156134661123  0.8371321925564403  1.0000
  O   O3        1.0  0.9850289598951035  0.6525666198932492  0.6414782599484319  1.0000
  O   O4        1.0  0.9850317263421329  0.2750714910710035  0.6552868697642451  1.0000
  O   O5        1.0  0.8574241733563813  0.6469994064954998  0.6310641170254518  1.0000
  O   O6        1.0  0.8574268279006022  0.4513499598752271  0.8267179804097147  1.0000
  O   O7        1.0  0.8574243426730149  0.46515679188339054  0.44921726613376944  1.0000
  O   O8        1.0  0.857426939847888  0.2695057829548748  0.6448711940524585  1.0000
