data_image0
_chemical_formula_structural       NC9NC5H8C6NCOH7C6BrH5Zn2C4O8
_chemical_formula_sum              "N3 C31 H20 O9 Br1 Zn2"
_cell_length_a       17.807436237873137
_cell_length_b       10.299619329790078
_cell_length_c       10.302972455390005
_cell_angle_alpha    85.56660839363487
_cell_angle_beta     89.39215201277248
_cell_angle_gamma    88.41592915749165

_space_group_name_H-M_alt    "P 1"
_space_group_IT_number       1

loop_
  _space_group_symop_operation_xyz
  'x, y, z'

loop_
  _atom_site_type_symbol
  _atom_site_label
  _atom_site_symmetry_multiplicity
  _atom_site_fract_x
  _atom_site_fract_y
  _atom_site_fract_z
  _atom_site_occupancy
  N   N1        1.0  0.707774372324549  0.38774355761073576  0.5577444556394029  1.0000
  C   C1        1.0  0.6471776612909177  0.3525544345016145  0.5467206575141803  1.0000
  C   C2        1.0  0.5718020129087977  0.30878304058292927  0.533008249603113  1.0000
  C   C3        1.0  0.5536920124661342  0.23736973083781954  0.4280329143710446  1.0000
  C   C4        1.0  0.4805061184648108  0.19475958631783152  0.41463643783375703  1.0000
  C   C5        1.0  0.4243814078562034  0.2231852278143467  0.5061828178432715  1.0000
  C   C6        1.0  0.3466036984907415  0.17801653262292638  0.49202789135308067  1.0000
  C   C7        1.0  0.2844486764027229  0.2597712960703813  0.5179664182044739  1.0000
  C   C8        1.0  0.2111204245236139  0.21695811644872065  0.5045835979733735  1.0000
  C   C9        1.0  0.1479160151694831  0.3014041888334793  0.5308861767228195  1.0000
  N   N2        1.0  0.0971126568167073  0.369292988707449  0.5520327232055067  1.0000
  C   C10       1.0  0.1993635825402155  0.09213219749584645  0.4652368837111984  1.0000
  C   C11       1.0  0.2606612311941952  0.010363582014780937  0.43928996854525604  1.0000
  C   C12       1.0  0.3338699481869129  0.05278222786553344  0.4524702777731153  1.0000
  C   C13       1.0  0.4431829417262795  0.2950928950537106  0.6113773598036456  1.0000
  C   C14       1.0  0.5164216574465927  0.3375126490568694  0.6246182178977155  1.0000
  H   H1        1.0  0.5960811038054699  0.21488530244849624  0.3563415709730129  1.0000
  H   H2        1.0  0.4675795985472141  0.14107865492167893  0.3317379736509487  1.0000
  H   H3        1.0  0.2929715704293876  0.35723450405732526  0.546843659075694  1.0000
  H   H4        1.0  0.1428896778966132  0.05809673791477077  0.45464209876294426  1.0000
  H   H5        1.0  0.2514402072868902  0.9137204684851766  0.40921279432140634  1.0000
  H   H6        1.0  0.3804936284559237  0.9870383245187451  0.43342159918595335  1.0000
  H   H7        1.0  0.401510589242723  0.3170382742522766  0.6843627206730865  1.0000
  H   H8        1.0  0.5298768461511679  0.3924141539350454  0.7064755208361435  1.0000
  C   C15       1.0  0.9023474601644397  0.9971543536593731  0.5548562235250785  1.0000
  C   C16       1.0  0.8661121567682357  0.006962968925785962  0.4338817188038513  1.0000
  C   C17       1.0  0.8489747613431122  0.8951238367391174  0.37201096432410474  1.0000
  C   C18       1.0  0.866335887291214  0.7717939092083934  0.43397837834485076  1.0000
  C   C19       1.0  0.9025467139184954  0.7598719242875602  0.5549321474149744  1.0000
  C   C20       1.0  0.9206138416464754  0.8731697555303317  0.6144380392068869  1.0000
  N   N3        1.0  0.8108525677759003  0.9090088568489791  0.24914307265706803  1.0000
  C   C21       1.0  0.8226649079633189  0.8237706627081065  0.14681934164258292  1.0000
  O   O1        1.0  0.87540679802161  0.739546849747244  0.15150339176039096  1.0000
  H   H9        1.0  0.9699845251182452  0.18588787433169718  0.783702948994415  1.0000
  H   H10       1.0  0.8515538091055648  0.10175504069321972  0.3865124555843866  1.0000
  H   H11       1.0  0.8502714186961291  0.6851617800174915  0.3893061219664562  1.0000
  H   H12       1.0  0.9485560654178035  0.8647324530882476  0.7076885176031127  1.0000
  H   H13       1.0  0.9154381223091546  0.42782494262082577  0.6022928530988627  1.0000
  H   H14       1.0  0.7760787600800868  0.9912582922762997  0.22862704496909791  1.0000
  H   H15       1.0  0.7870009545353656  0.8343312225228613  0.06208941498679654  1.0000
  C   C22       1.0  0.9024470773679727  0.3785131137993052  0.17365162035344062  1.0000
  C   C23       1.0  0.9243159825691049  0.24607791787393318  0.1822682771764157  1.0000
  C   C24       1.0  0.9351641813529398  0.1803829083627413  0.06960476836898333  1.0000
  C   C25       1.0  0.9243161091762576  0.24607786118536223  0.9471858847124941  1.0000
  C   C26       1.0  0.9024471129132638  0.3785131156688615  0.936136701906845  1.0000
  C   C27       1.0  0.8916182272414002  0.4440911541118773  0.05002519326469068  1.0000
  Br  Br1       1.0  0.9649095057537362  0.00024815890865870216  0.08297930120858132  1.0000
  H   H16       1.0  0.8942161294114114  0.42836069252335696  0.497709931976829  1.0000
  H   H17       1.0  0.933021481491756  0.19335789515132573  0.2761818853360396  1.0000
  H   H18       1.0  0.9330217783566822  0.19335792458932777  0.8611009783561134  1.0000
  H   H19       1.0  0.8747520502368896  0.546230257453524  0.042441640978062356  1.0000
  H   H20       1.0  0.894215073452389  0.42836025492787133  0.6046763234309864  1.0000
  Zn  Zn1       1.0  0.8201289889612748  0.38241565674038447  0.5561036809980782  1.0000
  Zn  Zn2       1.0  0.9847580192175561  0.3746103035470907  0.5536841698677817  1.0000
  C   C28       1.0  0.9024440864453729  0.3733395978597611  0.7920102204774497  1.0000
  C   C29       1.0  0.9024447199054864  0.38368791579093564  0.3177777315546908  1.0000
  C   C30       1.0  0.9025052057209854  0.6157022234950893  0.5497443727279239  1.0000
  C   C31       1.0  0.9023835440458299  0.1413237325375425  0.560043649190257  1.0000
  O   O2        1.0  0.9649197862500846  0.38245687008798135  0.36522957865378647  1.0000
  O   O3        1.0  0.9649186445528328  0.3686455813833176  0.7427216465944846  1.0000
  O   O4        1.0  0.9649671569364684  0.5643565066080154  0.5470902729778879  1.0000
  O   O5        1.0  0.9648712176921341  0.18674595681681616  0.5608608557545194  1.0000
  O   O6        1.0  0.840015734306889  0.5702800061356565  0.5489269959301724  1.0000
  O   O7        1.0  0.8399672223274893  0.3745706411940215  0.7445583004795606  1.0000
  O   O8        1.0  0.8399683640627863  0.3883818846409288  0.3670646716502981  1.0000
  O   O9        1.0  0.8399197954993427  0.19267096208122902  0.5626960460857271  1.0000
