data_image0
_chemical_formula_structural       NC9NC5H8C8H10C6NCOH7Zn2C4O8
_chemical_formula_sum              "N3 C33 H25 O9 Zn2"
_cell_length_a       17.807436237873137
_cell_length_b       9.275653711864159
_cell_length_c       10.29962270195845
_cell_angle_alpha    85.7624493108624
_cell_angle_beta     89.41121966804023
_cell_angle_gamma    87.8440138982238

_space_group_name_H-M_alt    "P 1"
_space_group_IT_number       1

loop_
  _space_group_symop_operation_xyz
  'x, y, z'

loop_
  _atom_site_type_symbol
  _atom_site_label
  _atom_site_symmetry_multiplicity
  _atom_site_fract_x
  _atom_site_fract_y
  _atom_site_fract_z
  _atom_site_occupancy
  N   N1        1.0  0.6994701273005058  0.5405573384138169  0.5617206711632434  1.0000
  C   C1        1.0  0.6390751508619811  0.5014762236771599  0.5505818671481064  1.0000
  C   C2        1.0  0.5639504380968322  0.45286362077625353  0.5367264045700177  1.0000
  C   C3        1.0  0.5462345040780108  0.37352220360667987  0.4314930635657699  1.0000
  C   C4        1.0  0.4732928795188966  0.3261992695758582  0.41795731332451513  1.0000
  C   C5        1.0  0.4170205521504699  0.3577985048483847  0.5096212171309886  1.0000
  C   C6        1.0  0.3395017880577739  0.3076340544751637  0.4953186678573196  1.0000
  C   C7        1.0  0.276878137417176  0.39843118544703016  0.5215244849005221  1.0000
  C   C8        1.0  0.2037953332985598  0.3508827879287346  0.508001750421156  1.0000
  C   C9        1.0  0.1401067775276599  0.4446687203914921  0.5345802724257984  1.0000
  N   N2        1.0  0.0889141991539356  0.5200661219908012  0.5559486585204039  1.0000
  C   C10       1.0  0.1927540568650143  0.2122507707743313  0.46824700511714523  1.0000
  C   C11       1.0  0.2545204127317195  0.12143825425155397  0.4420327532815347  1.0000
  C   C12       1.0  0.3274859291222562  0.16854845340734692  0.45535166382144765  1.0000
  C   C13       1.0  0.4354251974558415  0.4376889795882468  0.6150753997029836  1.0000
  C   C14       1.0  0.5084207173984866  0.4848004310650673  0.6284548806675077  1.0000
  H   H1        1.0  0.5887404928248997  0.34852774965690814  0.35970897471939267  1.0000
  H   H2        1.0  0.4606618361763725  0.2665573985836758  0.3348637192934618  1.0000
  H   H3        1.0  0.2848419804050315  0.5066734368366068  0.5507197640399435  1.0000
  H   H4        1.0  0.1364752855672101  0.17445094145828355  0.4575410048497559  1.0000
  H   H5        1.0  0.2458534678832761  0.014106278685913631  0.41163978698270665  1.0000
  H   H6        1.0  0.3744867977502728  0.09553369016309143  0.43608858046845733  1.0000
  H   H7        1.0  0.3936393094707556  0.46208528935071946  0.6881521801457149  1.0000
  H   H8        1.0  0.5215731678397543  0.5457973626901496  0.7105108784273899  1.0000
  C   C15       1.0  0.8963045934777004  0.10681101558576134  0.5575915026997609  1.0000
  C   C16       1.0  0.8786471402966604  0.1911033642771196  0.4420326688520957  1.0000
  C   C17       1.0  0.8542151254460699  0.1271210583590976  0.3316001704193563  1.0000
  C   C18       1.0  0.8485582007800246  0.9768265162664839  0.33583350339634643  1.0000
  C   C19       1.0  0.867026126347097  0.8913031357142686  0.4488776163904029  1.0000
  C   C20       1.0  0.8920869596433442  0.9538009736158811  0.5600889354229341  1.0000
  C   C21       1.0  0.8365914754930702  0.21879089193601553  0.20812492302401808  1.0000
  C   C22       1.0  0.9068696072752362  0.23690125405948526  0.12351341406993588  1.0000
  H   H9        1.0  0.9645517821398882  0.36783030165520736  0.7365786944225157  1.0000
  H   H10       1.0  0.8822445524175602  0.30773147829678793  0.43848065200422104  1.0000
  H   H11       1.0  0.830547889098931  0.9255019282173225  0.25091823133334445  1.0000
  H   H12       1.0  0.8635509625521628  0.7750145764400341  0.44813641350049216  1.0000
  H   H13       1.0  0.8991978877635971  0.654398525191389  0.774135516299238  1.0000
  H   H14       1.0  0.7927727498113968  0.16819528064492517  0.15230386923773453  1.0000
  H   H15       1.0  0.8137901273816034  0.32716249697677413  0.23148078189156962  1.0000
  H   H16       1.0  0.9506714209480034  0.29081277267014793  0.17647924036822826  1.0000
  H   H17       1.0  0.9294203464937782  0.12979836699086134  0.09645698364493582  1.0000
  H   H18       1.0  0.8926803954942415  0.304673482193875  0.03308491282403647  1.0000
  C   C23       1.0  0.8941249732017615  0.5301691861035938  0.177484092297852  1.0000
  C   C24       1.0  0.8153298548138163  0.5454376074012959  0.1765903640358848  1.0000
  C   C25       1.0  0.7757593539758559  0.5554839751300022  0.05918248014293925  1.0000
  C   C26       1.0  0.8154944729198563  0.5457379697755802  0.9414166203168692  1.0000
  C   C27       1.0  0.8942665863039174  0.5304428332257061  0.9401963276232674  1.0000
  C   C28       1.0  0.9331520545471728  0.5233229316183781  0.058741992013768396  1.0000
  N   N3        1.0  0.6950419465958552  0.5688741161483986  0.062287724073967654  1.0000
  C   C29       1.0  0.6505646621175362  0.6499080274323321  0.9650996916107375  1.0000
  O   O1        1.0  0.6804206557773903  0.7316783813684715  0.8777868987284085  1.0000
  H   H19       1.0  0.04270659119452769  0.49982756952203977  0.38652524867564075  1.0000
  H   H20       1.0  0.7842834190759492  0.550822885720218  0.26721695494771214  1.0000
  H   H21       1.0  0.784996539464992  0.5470705050665372  0.8510156225008827  1.0000
  H   H22       1.0  0.9938952683375564  0.5115712701023698  0.05855358974563862  1.0000
  H   H23       1.0  0.9244385221824795  0.5223886316102244  0.6124278210052507  1.0000
  H   H24       1.0  0.6667314470946907  0.5255352404186704  0.1446757227008797  1.0000
  H   H25       1.0  0.5900070279399089  0.6441021603695818  0.9688661956671418  1.0000
  Zn  Zn1       1.0  0.8118552933458443  0.5346401705708559  0.5600624921909543  1.0000
  Zn  Zn2       1.0  0.976529075431645  0.5259715379856116  0.5576174790838728  1.0000
  C   C30       1.0  0.8942667503748575  0.524645960590427  0.7960105030577864  1.0000
  C   C31       1.0  0.8941194075978671  0.5359674729961976  0.3216695743452125  1.0000
  C   C32       1.0  0.8928793594229663  0.7937002169814686  0.5544419472359443  1.0000
  C   C33       1.0  0.8955067509989059  0.26691148691142463  0.5632381951286589  1.0000
  O   O2        1.0  0.95661041315692  0.5346174384936013  0.3691316509873348  1.0000
  O   O3        1.0  0.9567593404751029  0.5194156154481289  0.7466923409996498  1.0000
  O   O4        1.0  0.9556381625528138  0.7366803749706026  0.5516240399657837  1.0000
  O   O5        1.0  0.9577315348177516  0.3173526922107659  0.5641998555145316  1.0000
  O   O6        1.0  0.8306527777646484  0.7432590193054476  0.5534801165878322  1.0000
  O   O7        1.0  0.8317739470427011  0.5259959924364519  0.7485483534876309  1.0000
  O   O8        1.0  0.8316250197348491  0.5411977646634958  0.37098610197800674  1.0000
  O   O9        1.0  0.8327461414620493  0.32393300810076875  0.56605440383941  1.0000
