data_image0
_chemical_formula_structural       NC8NC6H8C6SCH8C6NH7Zn2C4O8
_chemical_formula_sum              "N3 C31 H23 S1 Zn2 O8"
_cell_length_a       17.457602349358154
_cell_length_b       10.302809429070853
_cell_length_c       9.274774538082514
_cell_angle_alpha    85.06361174280542
_cell_angle_beta     93.23827242343725
_cell_angle_gamma    91.68806441137123

_space_group_name_H-M_alt    "P 1"
_space_group_IT_number       1

loop_
  _space_group_symop_operation_xyz
  'x, y, z'

loop_
  _atom_site_type_symbol
  _atom_site_label
  _atom_site_symmetry_multiplicity
  _atom_site_fract_x
  _atom_site_fract_y
  _atom_site_fract_z
  _atom_site_occupancy
  N   N1        1.0  0.7174645922133839  0.4641327411004472  0.47318033392192627  1.0000
  C   C1        1.0  0.6563483238134331  0.41831251711947903  0.461379563232319  1.0000
  C   C2        1.0  0.5803171373507455  0.36131778947932447  0.44671001163842794  1.0000
  C   C3        1.0  0.5220589954371623  0.40082655618415886  0.5299686368094383  1.0000
  C   C4        1.0  0.4474681106098274  0.3459441810479491  0.5159821138031633  1.0000
  C   C5        1.0  0.3856350413551991  0.38765757911667875  0.6041561555828268  1.0000
  C   C6        1.0  0.3108869894242522  0.40659728506666326  0.5421676724954632  1.0000
  C   C7        1.0  0.252629234548084  0.4459212596566293  0.6255463024110304  1.0000
  C   C8        1.0  0.1764350262342534  0.4654855828787492  0.5610950427771735  1.0000
  N   N2        1.0  0.11518779980311632  0.481208919730586  0.5092763979416381  1.0000
  C   C9        1.0  0.268629205370931  0.4665442447538002  0.7714786996410148  1.0000
  C   C10       1.0  0.34259395305938883  0.4479900897817719  0.8338980490196091  1.0000
  C   C11       1.0  0.4008417560427925  0.40884219849019243  0.7510282365758585  1.0000
  C   C12       1.0  0.43241883865348435  0.25088808638153726  0.41714408682882365  1.0000
  C   C13       1.0  0.4906667069957564  0.21165449191583274  0.33433011797362333  1.0000
  C   C14       1.0  0.5644748122737349  0.26664450360343284  0.3489279825623264  1.0000
  H   H1        1.0  0.5346436645161228  0.475427699132805  0.6040374364711236  1.0000
  H   H2        1.0  0.2981735329746178  0.3925043650357154  0.42875403447702376  1.0000
  H   H3        1.0  0.2239807143268053  0.49691418665660114  0.8368824733371651  1.0000
  H   H4        1.0  0.3547923503801879  0.4636433821198813  0.9468967586872938  1.0000
  H   H5        1.0  0.4574938823907734  0.3934606165489163  0.8022816289709032  1.0000
  H   H6        1.0  0.3758957178089398  0.205657657388979  0.4053031674096794  1.0000
  H   H7        1.0  0.47859151996930505  0.13817971636417492  0.2589292264315699  1.0000
  H   H8        1.0  0.6091251931806646  0.235400760092904  0.2840923916131528  1.0000
  C   C15       1.0  0.9163299010219814  0.0914175066858165  0.49123497255094395  1.0000
  C   C16       1.0  0.9601889274671771  0.10195961260233166  0.36822432160811425  1.0000
  C   C17       1.0  0.981800603496886  0.9902182101589421  0.3068354825351718  1.0000
  C   C18       1.0  0.9601888304484254  0.8668084511239583  0.368224235240475  1.0000
  C   C19       1.0  0.9163298704086456  0.8539143667998835  0.49123496219606366  1.0000
  C   C20       1.0  0.8945947328898465  0.9668654737908706  0.5521099901106317  1.0000
  S   S1        1.0  0.03797911857157765  0.005182701411263313  0.14985272368348723  1.0000
  C   C21       1.0  0.954427777833324  0.010826587207283467  0.023164713563311956  1.0000
  H   H9        1.0  0.8997762156925916  0.4147591702511295  0.5375584034511509  1.0000
  H   H10       1.0  0.9776092503634928  0.19671375234117483  0.31936248328804506  1.0000
  H   H11       1.0  0.9776090806443907  0.7813633524474818  0.31936235541940383  1.0000
  H   H12       1.0  0.8607517444476481  0.957827426454911  0.6469776121310642  1.0000
  H   H13       1.0  0.899774956970155  0.5217433606641364  0.5375567021837644  1.0000
  H   H14       1.0  0.919272486838611  0.9197112542281376  0.039219054128775355  1.0000
  H   H15       1.0  0.9192732038400357  0.09594625078860997  0.039218594568226406  1.0000
  H   H16       1.0  0.9738729752409074  0.020496676242631073  0.9108543737205554  1.0000
  C   C22       1.0  0.9149525989347581  0.47592738457871975  0.06729362833632502  1.0000
  C   C23       1.0  0.9693319309272995  0.5548771261523522  0.13896542053220906  1.0000
  C   C24       1.0  0.027154232143115298  0.6232800794680919  0.06344825990664416  1.0000
  C   C25       1.0  0.031065510455333678  0.6130523705979833  0.914825820333006  1.0000
  C   C26       1.0  0.9769323961890032  0.536973218847203  0.8414738112544278  1.0000
  C   C27       1.0  0.9177071605860747  0.4694044406323361  0.91517625022261  1.0000
  N   N3        1.0  0.08241459089170045  0.7020870262808807  0.1382052563560625  1.0000
  H   H17       1.0  0.8002390727601295  0.21720789262574902  0.18280294099182326  1.0000
  H   H18       1.0  0.9679505008600099  0.5609752836482591  0.25486017532601846  1.0000
  H   H19       1.0  0.07570867085606192  0.6651301163027337  0.8553467118466309  1.0000
  H   H20       1.0  0.980354561740546  0.533508782537722  0.7256113465087601  1.0000
  H   H21       1.0  0.8380866148319548  0.29899896226595035  0.641868383568228  1.0000
  H   H22       1.0  0.08018602711822487  0.7101329189815868  0.24937292144963297  1.0000
  H   H23       1.0  0.12595005641207946  0.753096256159417  0.08291430185241899  1.0000
  Zn  Zn1       1.0  0.8322389457422149  0.46905701161297286  0.4836052138066256  1.0000
  Zn  Zn2       1.0  0.0004134704234077802  0.47627391369393446  0.49886333749950307  1.0000
  C   C28       1.0  0.9171847820500552  0.46546525970155495  0.7549081266942406  1.0000
  C   C29       1.0  0.9154694710364063  0.4798673814469201  0.2275607329255822  1.0000
  C   C30       1.0  0.9163072321863408  0.70983030682699  0.4854816841664915  1.0000
  C   C31       1.0  0.9163469637640328  0.23550077143670878  0.49698724721470144  1.0000
  O   O1        1.0  0.9794642937032806  0.48392279309123953  0.28713821570735343  1.0000
  O   O2        1.0  0.9808305309725193  0.4668863335202742  0.7069107911678443  1.0000
  O   O3        1.0  0.9801210428938311  0.6642141510234467  0.4893469545315925  1.0000
  O   O4        1.0  0.9801737240437338  0.2865949832455812  0.5047019388923912  1.0000
  O   O5        1.0  0.8524786347321524  0.6587359396000236  0.4777666071992954  1.0000
  O   O6        1.0  0.853188122557192  0.4614096825203251  0.6953303668597348  1.0000
  O   O7        1.0  0.8518218797001197  0.4784461102042694  0.275556055703273  1.0000
  O   O8        1.0  0.8525313103890713  0.2811182902397942  0.4931198871250826  1.0000
