data_image0
_chemical_formula_structural       NC9NC5H8C6H6C6H6Zn2C4O8
_chemical_formula_sum              "N2 C30 H20 Zn2 O8"
_cell_length_a       17.807436237873137
_cell_length_b       10.681118228259551
_cell_length_c       10.681121600428288
_cell_angle_alpha    85.56070829977578
_cell_angle_beta     89.39214167786866
_cell_angle_gamma    88.3900060031841

_space_group_name_H-M_alt    "P 1"
_space_group_IT_number       1

loop_
  _space_group_symop_operation_xyz
  'x, y, z'

loop_
  _atom_site_type_symbol
  _atom_site_label
  _atom_site_symmetry_multiplicity
  _atom_site_fract_x
  _atom_site_fract_y
  _atom_site_fract_z
  _atom_site_occupancy
  N   N1        1.0  0.7074118972148468  0.3382044479187911  0.6086722548440284  1.0000
  C   C1        1.0  0.6468243824782051  0.3042714907367401  0.5980421129109561  1.0000
  C   C2        1.0  0.5714601732767929  0.2620626288950971  0.5848193705547753  1.0000
  C   C3        1.0  0.5533688445858824  0.1931985981768456  0.4835673796358264  1.0000
  C   C4        1.0  0.48019408629030186  0.1521095319595276  0.4706492721963693  1.0000
  C   C5        1.0  0.4240619382884417  0.17952044941096368  0.5589518630593526  1.0000
  C   C6        1.0  0.3462960332737737  0.13596416654620125  0.5453024028523636  1.0000
  C   C7        1.0  0.2841196454276985  0.21480048421109932  0.5703147735805958  1.0000
  C   C8        1.0  0.2108025823072664  0.1735156307523107  0.557409858439931  1.0000
  C   C9        1.0  0.1475761039007724  0.25494718417307194  0.5827731342212497  1.0000
  N   N2        1.0  0.0967550035566089  0.32041251935672044  0.6031645074103134  1.0000
  C   C10       1.0  0.1990783622540006  0.05314569285653148  0.5194681282216871  1.0000
  C   C11       1.0  0.2603973802865404  0.9742960176417588  0.49444766748323543  1.0000
  C   C12       1.0  0.3335950116359866  0.015200421221666982  0.5071572790609864  1.0000
  C   C13       1.0  0.4428446712050355  0.24886119026745646  0.6604152526046903  1.0000
  C   C14       1.0  0.5160723009861656  0.2897666624429416  0.6731832693002553  1.0000
  H   H1        1.0  0.5957638187612664  0.17151680745687825  0.4144163176490967  1.0000
  H   H2        1.0  0.4672816022278968  0.10034487731755015  0.39069085293742045  1.0000
  H   H3        1.0  0.2926170686718129  0.30878449318254453  0.5981603109062996  1.0000
  H   H4        1.0  0.1426133524028109  0.020325216228142873  0.5092517002438837  1.0000
  H   H5        1.0  0.2512016129916101  0.881102827717827  0.4654445999940433  1.0000
  H   H6        1.0  0.3802358732014529  0.9518034150228002  0.48878929616657474  1.0000
  H   H7        1.0  0.4011665766068308  0.27002317457563074  0.7308145710101752  1.0000
  H   H8        1.0  0.5295131350010188  0.3427083190328748  0.7521372710036134  1.0000
  C   C15       1.0  0.9020870488033473  0.96155832954642  0.6059237388711025  1.0000
  C   C16       1.0  0.9350671608093852  0.8855379667306416  0.7049101555960213  1.0000
  C   C17       1.0  0.9350671493234461  0.75465572907972  0.7049100985041563  1.0000
  C   C18       1.0  0.90208703618989  0.6970487340796441  0.6059237931845867  1.0000
  C   C19       1.0  0.869134225229951  0.7730564495335187  0.5070191756023108  1.0000
  C   C20       1.0  0.8691342366782736  0.903948707109209  0.5070192262663273  1.0000
  H   H9        1.0  0.8687350258395269  0.26957853703250634  0.5058221911595879  1.0000
  H   H10       1.0  0.9609185730833558  0.9271322514389942  0.7825003412745222  1.0000
  H   H11       1.0  0.960918480716435  0.6986282270641608  0.7825003204602956  1.0000
  H   H12       1.0  0.8432794422909006  0.7315078619074794  0.4294188589754224  1.0000
  H   H13       1.0  0.8432794225983669  0.9599323018412671  0.4294188490712523  1.0000
  H   H14       1.0  0.8687353024377837  0.4076491735032267  0.5058218484893704  1.0000
  C   C21       1.0  0.9020870544768642  0.3293034988899639  0.23817853763636876  1.0000
  C   C22       1.0  0.8483144402830851  0.26211208758848925  0.17751671586605133  1.0000
  C   C23       1.0  0.8483143933777317  0.2621121700309035  0.04663457657669312  1.0000
  C   C24       1.0  0.9020869954173529  0.32930356297672714  0.9736689741481808  1.0000
  C   C25       1.0  0.9558152272495852  0.3964392845391451  0.03433084340374992  1.0000
  C   C26       1.0  0.9558152176377199  0.3964392655596256  0.16522314220276457  1.0000
  H   H15       1.0  0.9564654216187657  0.39725250164198234  0.5306670452149111  1.0000
  H   H16       1.0  0.8061649267477609  0.20944428367065826  0.23114979676916425  1.0000
  H   H17       1.0  0.8061649110575978  0.20944434333583395  0.0026457677655913336  1.0000
  H   H18       1.0  0.9979702449786966  0.44911403100366076  0.9807420200061454  1.0000
  H   H19       1.0  0.997970207126913  0.4491139888330349  0.20916638802600418  1.0000
  H   H20       1.0  0.9564656560919507  0.3972520546185554  0.6687380161845571  1.0000
  Zn  Zn1       1.0  0.8197679062379128  0.3330667401243057  0.6070900803917367  1.0000
  Zn  Zn2       1.0  0.9843989763361964  0.3255400190163422  0.6047569770719432  1.0000
  C   C27       1.0  0.9020853506359411  0.3243146804141055  0.8346455719452406  1.0000
  C   C28       1.0  0.902083329704282  0.33429357663847337  0.3772015829540909  1.0000
  C   C29       1.0  0.9020831643986508  0.5580255430519394  0.6009335387009349  1.0000
  C   C30       1.0  0.9020854597645366  0.10058121198575654  0.6109136837596221  1.0000
  O   O1        1.0  0.964558712757005  0.3331064774668  0.4229735864027304  1.0000
  O   O2        1.0  0.9645611404842006  0.3197882276852706  0.7871024365700554  1.0000
  O   O3        1.0  0.9645585328549832  0.50851274344763  0.5983783281097603  1.0000
  O   O4        1.0  0.9645612642087943  0.14438197323125923  0.6116976017630158  1.0000
  O   O5        1.0  0.8396055621848104  0.5142247884792521  0.6001494564902505  1.0000
  O   O6        1.0  0.8396081698105593  0.32550177730163954  0.7888734981789074  1.0000
  O   O7        1.0  0.8396057421333988  0.33881998344096553  0.4247431423882855  1.0000
  O   O8        1.0  0.839608293582112  0.15009547024847003  0.6134672516381681  1.0000
