data_image0
_chemical_formula_structural       NC9NC5H8C6OCH8C9H8Zn2C4O8
_chemical_formula_sum              "N2 C34 H24 O9 Zn2"
_cell_length_a       17.807436237873137
_cell_length_b       9.273888216677433
_cell_length_c       9.275155815604963
_cell_angle_alpha    86.25620799071866
_cell_angle_beta     89.76311116066846
_cell_angle_gamma    87.81887448081709

_space_group_name_H-M_alt    "P 1"
_space_group_IT_number       1

loop_
  _space_group_symop_operation_xyz
  'x, y, z'

loop_
  _atom_site_type_symbol
  _atom_site_label
  _atom_site_symmetry_multiplicity
  _atom_site_fract_x
  _atom_site_fract_y
  _atom_site_fract_z
  _atom_site_occupancy
  N   N1        1.0  0.6942631734353549  0.5278844538844545  0.4042956888136293  1.0000
  C   C1        1.0  0.6338395520021602  0.4886956520041925  0.39192214255922564  1.0000
  C   C2        1.0  0.5586792079606426  0.4399490980020997  0.3765307947403824  1.0000
  C   C3        1.0  0.5406262776011664  0.3596445313093053  0.2597206970306509  1.0000
  C   C4        1.0  0.4676498054967236  0.31219076848783733  0.24468455305102133  1.0000
  C   C5        1.0  0.4116796092268191  0.3446219425050121  0.3464209937839384  1.0000
  C   C6        1.0  0.3341240602692512  0.29431922184819137  0.3305330045942989  1.0000
  C   C7        1.0  0.2715680642916464  0.38536948941687466  0.3596434001587743  1.0000
  C   C8        1.0  0.1984505081813579  0.3376903382274714  0.34462163204850005  1.0000
  C   C9        1.0  0.1348301805974003  0.4317333249545918  0.3741465598749174  1.0000
  N   N2        1.0  0.08369245665518871  0.5073373902499401  0.39788377241937156  1.0000
  C   C10       1.0  0.187306802287434  0.19867414117384885  0.3004603116477875  1.0000
  C   C11       1.0  0.24900547854654032  0.10760840916642356  0.2713405506234208  1.0000
  C   C12       1.0  0.3220051593572536  0.15484744327324917  0.28613598526951334  1.0000
  C   C13       1.0  0.4304218704950835  0.42547765957802053  0.463476344600811  1.0000
  C   C14       1.0  0.5034517589968912  0.47271849206982886  0.4783389994982066  1.0000
  H   H1        1.0  0.5828957174811394  0.33399852074104874  0.18004849956489744  1.0000
  H   H2        1.0  0.4547519769718377  0.2517889447636015  0.1524507208291883  1.0000
  H   H3        1.0  0.2796056569202951  0.49389507993359105  0.3920767630113988  1.0000
  H   H4        1.0  0.1310005533301367  0.1607707645786569  0.28856747330549015  1.0000
  H   H5        1.0  0.24026053342246437  0.9999824717916868  0.23757829569055988  1.0000
  H   H6        1.0  0.3689577334067809  0.08164543390643875  0.2647359231400639  1.0000
  H   H7        1.0  0.3888770311824742  0.450537063155088  0.5445829634100245  1.0000
  H   H8        1.0  0.5168671824496033  0.534466279597136  0.5694217410303413  1.0000
  C   C15       1.0  0.8911830203867522  0.09401979094475088  0.3995809229996923  1.0000
  C   C16       1.0  0.8732229270325191  0.1771214894317168  0.271142768986949  1.0000
  C   C17       1.0  0.8488883474664153  0.11262079494821631  0.14846402800105363  1.0000
  C   C18       1.0  0.8423734089908834  0.9620283625835606  0.1537629069010853  1.0000
  C   C19       1.0  0.861110932406367  0.8776666648861836  0.27941588019109465  1.0000
  C   C20       1.0  0.8867798674238397  0.9411907144596896  0.4026108959518089  1.0000
  O   O1        1.0  0.8313972733561341  0.2019013410080266  0.02425542915196721  1.0000
  C   C21       1.0  0.8058925868536954  0.15118010987119068  0.8920397335443644  1.0000
  H   H9        1.0  0.8984409316926129  0.1733760136688265  0.7541392352358043  1.0000
  H   H10       1.0  0.8763828779627961  0.2937935420489426  0.26681872681500596  1.0000
  H   H11       1.0  0.8235271709169931  0.9087829900404066  0.060859314719732716  1.0000
  H   H12       1.0  0.8572047030335856  0.7614002132913468  0.2790002764108386  1.0000
  H   H13       1.0  0.8948137128714898  0.6438849633156126  0.6403691606766899  1.0000
  H   H14       1.0  0.752023641126473  0.09604137492742582  0.9095371842833524  1.0000
  H   H15       1.0  0.8488945203614794  0.07593074619102325  0.8481148305621917  1.0000
  H   H16       1.0  0.7964981158679115  0.24467493654848016  0.8125110535488744  1.0000
  C   C22       1.0  0.8876235960001745  0.5140318148191358  0.977874300714138  1.0000
  C   C23       1.0  0.8284740194342718  0.5874194191951545  0.0469084242842428  1.0000
  C   C24       1.0  0.7743077661204152  0.670128120608098  0.9667943252126965  1.0000
  C   C25       1.0  0.7782855817685156  0.6811743582037173  0.816186339668687  1.0000
  C   C26       1.0  0.8359270354471939  0.6070915286705882  0.7454659766728975  1.0000
  C   C27       1.0  0.8903392931852465  0.5211786477252549  0.8243174696251669  1.0000
  C   C28       1.0  0.7225828676249112  0.7673332053940942  0.7337966843536678  1.0000
  C   C29       1.0  0.6759418603882253  0.8394793466851092  0.6647799100845879  1.0000
  C   C30       1.0  0.6193513811182099  0.927016464402797  0.5810282391588859  1.0000
  H   H17       1.0  0.06264424163114324  0.38844905359209125  0.08754418983812551  1.0000
  H   H18       1.0  0.8251188285981303  0.583599004778331  0.16374124600596085  1.0000
  H   H19       1.0  0.72968239004271  0.7266842721710269  0.02253137173884001  1.0000
  H   H20       1.0  0.8372801812389356  0.6138011917539961  0.628321080649529  1.0000
  H   H21       1.0  0.007150475994543326  0.431504183307716  0.548520194727057  1.0000
  H   H22       1.0  0.6345996373961116  0.9303552684937189  0.46479266038222145  1.0000
  H   H23       1.0  0.5636527810581903  0.8786033479120989  0.596792267079369  1.0000
  H   H24       1.0  0.6168707531155657  0.03849847783482119  0.6179626417537563  1.0000
  Zn  Zn1       1.0  0.8066440979908399  0.5219512366022592  0.40245366953292283  1.0000
  Zn  Zn2       1.0  0.97131161302909  0.51325894938244  0.3997375979448734  1.0000
  C   C31       1.0  0.889854170124448  0.5140814001560818  0.6643010963165754  1.0000
  C   C32       1.0  0.8881033300539132  0.5211305121378063  0.1378902894663303  1.0000
  C   C33       1.0  0.8875898765878493  0.7810090894647692  0.39629511408012874  1.0000
  C   C34       1.0  0.8903675766549607  0.2542010933972567  0.4058963432683229  1.0000
  O   O2        1.0  0.9507548296774673  0.5202079290990456  0.19056235953554324  1.0000
  O   O3        1.0  0.9521815085927375  0.508405646628409  0.6095671719925226  1.0000
  O   O4        1.0  0.9503522253326948  0.7239531886274062  0.3931504644091499  1.0000
  O   O5        1.0  0.9525840563473099  0.30466039947249435  0.4069789600217457  1.0000
  O   O6        1.0  0.8253715984796464  0.7305497894799624  0.39521230837533716  1.0000
  O   O7        1.0  0.8272008724822663  0.5150039798805839  0.6116289453124517  1.0000
  O   O8        1.0  0.8257741883188952  0.5268061974518705  0.19262239992088204  1.0000
  O   O9        1.0  0.8276034153859643  0.31125865842063094  0.4090391084235421  1.0000
