data_image0
_chemical_formula_structural       NC8NC6H8C6ClH5C6SCH8Zn2C4O8
_chemical_formula_sum              "N2 C31 H21 Cl1 S1 Zn2 O8"
_cell_length_a       17.457602349358154
_cell_length_b       10.30297070629231
_cell_length_c       10.302812801239593
_cell_angle_alpha    85.56070246902202
_cell_angle_beta     92.87590592568559
_cell_angle_gamma    91.68807172504815

_space_group_name_H-M_alt    "P 1"
_space_group_IT_number       1

loop_
  _space_group_symop_operation_xyz
  'x, y, z'

loop_
  _atom_site_type_symbol
  _atom_site_label
  _atom_site_symmetry_multiplicity
  _atom_site_fract_x
  _atom_site_fract_y
  _atom_site_fract_z
  _atom_site_occupancy
  N   N1        1.0  0.722425062183304  0.4523639399257613  0.6269383121040588  1.0000
  C   C1        1.0  0.6613471287067677  0.40645364968327  0.6163259285045728  1.0000
  C   C2        1.0  0.5853635964285995  0.3493469611267268  0.6031336622628973  1.0000
  C   C3        1.0  0.5268349657317849  0.38949562061199794  0.6780077626884184  1.0000
  C   C4        1.0  0.45228951622126445  0.3345065060455912  0.6654297411305716  1.0000
  C   C5        1.0  0.3901699890764043  0.3768975768402656  0.7447242531930849  1.0000
  C   C6        1.0  0.3156233277596533  0.3953601067289938  0.6889782996268277  1.0000
  C   C7        1.0  0.2570946942124973  0.4353249001934876  0.7639603197423717  1.0000
  C   C8        1.0  0.1811098776678189  0.4543930913506107  0.705999602706143  1.0000
  N   N2        1.0  0.1200310016730703  0.46971753941381267  0.6593993372090565  1.0000
  C   C9        1.0  0.2726205592649244  0.45707022523923246  0.8951966509381306  1.0000
  C   C10       1.0  0.3463825165645193  0.43899655496034473  0.9513300806078888  1.0000
  C   C11       1.0  0.4048995451788071  0.3992117563870996  0.8768056377077929  1.0000
  C   C12       1.0  0.4375613432815774  0.23869153551009425  0.5765451505481165  1.0000
  C   C13       1.0  0.49607825582250087  0.19882146471130646  0.5020709275188457  1.0000
  C   C14       1.0  0.5698389396562946  0.25392291721517646  0.5151987257421804  1.0000
  H   H1        1.0  0.5391790048293184  0.464665409215669  0.7446174995682129  1.0000
  H   H2        1.0  0.3032783301541763  0.38039491241463597  0.5869859387000649  1.0000
  H   H3        1.0  0.22775958583249542  0.48794284504440033  0.9540139651035426  1.0000
  H   H4        1.0  0.3582138031892833  0.4555189050912509  0.052949298567182  1.0000
  H   H5        1.0  0.46138515751797066  0.3842247093770088  0.9228975743420533  1.0000
  H   H6        1.0  0.3810766878425867  0.19337072215529338  0.5658966614488044  1.0000
  H   H7        1.0  0.4842480265863198  0.12476777803972294  0.43426324670867333  1.0000
  H   H8        1.0  0.6146999569621323  0.22218088053362184  0.45689237559049656  1.0000
  C   C15       1.0  0.921231685525604  0.07979343654268845  0.6431747228580575  1.0000
  C   C16       1.0  0.0004534748579489989  0.08010806148631722  0.674648815462821  1.0000
  C   C17       1.0  0.03976121226174967  0.9633073260757647  0.6902653294054899  1.0000
  C   C18       1.0  0.000453474245452945  0.8450000927895742  0.6746487543546607  1.0000
  C   C19       1.0  0.9212316937133356  0.8422783787128563  0.6431747978457969  1.0000
  C   C20       1.0  0.8820069694987858  0.9602842694351853  0.6275911450303091  1.0000
  Cl  Cl1       1.0  0.13872810220549492  0.9652038845332076  0.7295838804385324  1.0000
  H   H9        1.0  0.891390225004101  0.4069780411601276  0.631318256567097  1.0000
  H   H10       1.0  0.03196190579122549  0.17075845998142292  0.6871667155418952  1.0000
  H   H11       1.0  0.031961875450859045  0.7555572658289467  0.6871666197884427  1.0000
  H   H12       1.0  0.8209087214406995  0.959113293927358  0.6033173368566398  1.0000
  H   H13       1.0  0.8913902212626119  0.513950074321063  0.6313185013787213  1.0000
  C   C21       1.0  0.9212317207308445  0.46103589856109206  0.2619262791874388  1.0000
  C   C22       1.0  0.8953579160424023  0.5893757204343182  0.24861663525904487  1.0000
  C   C23       1.0  0.8822861344216758  0.6530334444407078  0.12500244332670496  1.0000
  C   C24       1.0  0.8953578468765384  0.5893755811317756  0.013465459923009737  1.0000
  C   C25       1.0  0.9212316709668755  0.4610358876399887  0.024423178754187536  1.0000
  C   C26       1.0  0.9340185007623654  0.3974807719235349  0.14918125871447585  1.0000
  S   S1        1.0  0.8493860911325279  0.8171095478249593  0.109505123715677  1.0000
  C   C27       1.0  0.7484684844799605  0.7673451972770702  0.10477822482120702  1.0000
  H   H14       1.0  0.9309537979179213  0.4126529529069958  0.5942540770745837  1.0000
  H   H15       1.0  0.8850797931990716  0.6403526213741484  0.3338965698815235  1.0000
  H   H16       1.0  0.8850796395963239  0.6403524276529229  0.9185462443591099  1.0000
  H   H17       1.0  0.9539622008060205  0.2984773648365031  0.1585400222917832  1.0000
  H   H18       1.0  0.9309523693891579  0.4126522165336979  0.7012383749337192  1.0000
  H   H19       1.0  0.7348639760053501  0.7089959737114415  0.02002121241771193  1.0000
  H   H20       1.0  0.7348643045968419  0.7089973001137864  0.19625593127784868  1.0000
  H   H21       1.0  0.7129603023735152  0.8554059859434462  0.09494279288230478  1.0000
  Zn  Zn1       1.0  0.8371655475907513  0.4573683322862685  0.6363133588526033  1.0000
  Zn  Zn2       1.0  0.005290502014717369  0.4647025026246516  0.6500349196292483  1.0000
  C   C28       1.0  0.9212299705885805  0.4558637791037239  0.8802948113206612  1.0000
  C   C29       1.0  0.9212279149362075  0.46620877399376437  0.40605374442646114  1.0000
  C   C30       1.0  0.9212277566454599  0.6981522931505617  0.6380008871746548  1.0000
  C   C31       1.0  0.9212300715099779  0.2239186976386851  0.6483477331069585  1.0000
  O   O1        1.0  0.9850291816899105  0.47072245372804056  0.45963149918533475  1.0000
  O   O2        1.0  0.9850316540960196  0.4569155855446927  0.8371310299679646  1.0000
  O   O3        1.0  0.985029006220058  0.6525665872740163  0.6414769017530213  1.0000
  O   O4        1.0  0.9850317721962201  0.2750714587833265  0.6552855253741274  1.0000
  O   O5        1.0  0.857424220036453  0.6469993736262141  0.6310627484184002  1.0000
  O   O6        1.0  0.8574268679089688  0.45134993170375326  0.8267168074095281  1.0000
  O   O7        1.0  0.8574243955539788  0.46515675464781125  0.4492157157235479  1.0000
  O   O8        1.0  0.8574269860571448  0.26950575041710856  0.644869839249167  1.0000
