data_image0
_chemical_formula_structural       NC9NC5H8C7F3H5C6NH7Zn2C4O8
_chemical_formula_sum              "N3 C31 H20 F3 Zn2 O8"
_cell_length_a       17.807436237873137
_cell_length_b       9.27228830945605
_cell_length_c       9.274774538082514
_cell_angle_alpha    84.76856818496036
_cell_angle_beta     89.72824813723155
_cell_angle_gamma    87.81380667828488

_space_group_name_H-M_alt    "P 1"
_space_group_IT_number       1

loop_
  _space_group_symop_operation_xyz
  'x, y, z'

loop_
  _atom_site_type_symbol
  _atom_site_label
  _atom_site_symmetry_multiplicity
  _atom_site_fract_x
  _atom_site_fract_y
  _atom_site_fract_z
  _atom_site_occupancy
  N   N1        1.0  0.6941643465800049  0.5569869926202149  0.38860027342659564  1.0000
  C   C1        1.0  0.6337419789569065  0.5179761811250734  0.3765507975674198  1.0000
  C   C2        1.0  0.5585831945166232  0.46945102788881377  0.36156255760526435  1.0000
  C   C3        1.0  0.5405306354968902  0.3910973404858167  0.24528184254687435  1.0000
  C   C4        1.0  0.4675556803586243  0.3438600256813866  0.23063803769866542  1.0000
  C   C5        1.0  0.4115866454235292  0.3745570270097649  0.3322410449135462  1.0000
  C   C6        1.0  0.3340327057280934  0.32448286684631755  0.31676902444759136  1.0000
  C   C7        1.0  0.2714738053801929  0.4151133174965911  0.34512701624844433  1.0000
  C   C8        1.0  0.1983577755029739  0.367650154434614  0.3304995770934238  1.0000
  C   C9        1.0  0.1347344350523969  0.4612689306269606  0.3592465718141984  1.0000
  N   N2        1.0  0.0835942890026177  0.5365319389688825  0.3823583816596483  1.0000
  C   C10       1.0  0.1872185108630433  0.22927000019530142  0.2874874513305752  1.0000
  C   C11       1.0  0.24892009187948344  0.13862423308944027  0.2591202153504095  1.0000
  C   C12       1.0  0.3219182584385046  0.18565079332928014  0.2735248318962493  1.0000
  C   C13       1.0  0.4303285194304128  0.4534581261278141  0.44876256027003847  1.0000
  C   C14       1.0  0.5033568952248514  0.5004853205953759  0.4632344803603057  1.0000
  H   H1        1.0  0.5827991757403793  0.36680916924662976  0.16571630961650063  1.0000
  H   H2        1.0  0.45465802601899236  0.28500143515510556  0.13879594352114522  1.0000
  H   H3        1.0  0.2795078817855727  0.5231777847693377  0.37666023141899063  1.0000
  H   H4        1.0  0.130913476388589  0.1915374776697858  0.27590816383626593  1.0000
  H   H5        1.0  0.2401785954309892  0.031483307125080184  0.22624829291850168  1.0000
  H   H6        1.0  0.3688732156854664  0.11275155048215746  0.2527326338691076  1.0000
  H   H7        1.0  0.3887846374470679  0.477134264410338  0.529769750850285  1.0000
  H   H8        1.0  0.5167720635517156  0.5607110963349462  0.5539120322368936  1.0000
  C   C15       1.0  0.8911012535951948  0.12279877773225478  0.3876681480158437  1.0000
  C   C16       1.0  0.9264360927551669  0.20394540901130886  0.27310246717063147  1.0000
  C   C17       1.0  0.9543338763897464  0.13790057847310577  0.15362382968140653  1.0000
  C   C18       1.0  0.9466082113001818  0.9891820364476716  0.14452191947732929  1.0000
  C   C19       1.0  0.914020362174322  0.9061926641086779  0.26088074077883516  1.0000
  C   C20       1.0  0.8866646761814376  0.970708608323492  0.38330300123021765  1.0000
  C   C21       1.0  0.9786786938830982  0.9170604983072811  0.01723012480993158  1.0000
  F   F1        1.0  0.9776289070390483  0.012792523956137947  0.8936060612100984  1.0000
  F   F2        1.0  0.9372113926537236  0.7991251330492986  0.990381885888084  1.0000
  F   F3        1.0  0.05205504900970981  0.8703768110048166  0.047309612468061424  1.0000
  H   H9        1.0  0.7656062047775145  0.209705895529674  0.6492914621243266  1.0000
  H   H10       1.0  0.9311807265412567  0.3199474554410999  0.2745198880253019  1.0000
  H   H11       1.0  0.981436994247633  0.20370024232849238  0.06754241975594533  1.0000
  H   H12       1.0  0.9116088344310674  0.7899087852572401  0.25767395721704633  1.0000
  H   H13       1.0  0.8527972837263907  0.8397556479656823  0.7333889401250575  1.0000
  C   C22       1.0  0.8875150692611397  0.550517070023254  0.961671853252398  1.0000
  C   C23       1.0  0.9403147093140493  0.6329175189288025  0.02711632586176127  1.0000
  C   C24       1.0  0.9965477524989065  0.7032483003961416  0.9450665632953146  1.0000
  C   C25       1.0  0.000437960041225649  0.6914870104948383  0.7960872779966173  1.0000
  C   C26       1.0  0.9478627626971334  0.6122542890853724  0.7289200055388898  1.0000
  C   C27       1.0  0.8902508348270609  0.542990260198446  0.8092992694954502  1.0000
  N   N3        1.0  0.05021109919910316  0.7854025836557652  0.013503488269528852  1.0000
  H   H14       1.0  0.7766702270710899  0.2741931321754727  0.09084541095129484  1.0000
  H   H15       1.0  0.9389262576152534  0.6398357791795122  0.1431228848031163  1.0000
  H   H16       1.0  0.04385836735585946  0.7449709105591149  0.7315687147360368  1.0000
  H   H17       1.0  0.9512345823345425  0.6080623838891388  0.6127139231254208  1.0000
  H   H18       1.0  0.8132621337564347  0.3613927193252928  0.5454230250382399  1.0000
  H   H19       1.0  0.047981633652802946  0.7945707735205512  0.12486177694063882  1.0000
  H   H20       1.0  0.09255284953858656  0.8378081305349421  0.9532968386071929  1.0000
  Zn  Zn1       1.0  0.8065454617167223  0.5510801795810787  0.3868073648398349  1.0000
  Zn  Zn2       1.0  0.9712132555404832  0.5424268782049926  0.3841632157072139  1.0000
  C   C28       1.0  0.8897621383471629  0.5386616288362802  0.6491091759902967  1.0000
  C   C29       1.0  0.8879983680029857  0.5548471548198928  0.12186150795767925  1.0000
  C   C30       1.0  0.8874808381916659  0.8104868592395604  0.3783770023040738  1.0000
  C   C31       1.0  0.8902796212931067  0.28302019212789054  0.39259376842054494  1.0000
  O   O1        1.0  0.9506511700146316  0.5530101895630104  0.17461921103723577  1.0000
  O   O2        1.0  0.9520883860522602  0.5339298531230481  0.5943442150540172  1.0000
  O   O3        1.0  0.9502453697664672  0.7534321953155496  0.37572607512617906  1.0000
  O   O4        1.0  0.9524941297071609  0.33350786161195733  0.39323724360210544  1.0000
  O   O5        1.0  0.8252645313569755  0.7599991991286994  0.3777333378396621  1.0000
  O   O6        1.0  0.8271075383150754  0.5404985921795062  0.596351391885577  1.0000
  O   O7        1.0  0.825670316990267  0.559578893714715  0.17662465294882557  1.0000
  O   O8        1.0  0.8275132770829912  0.34007655447679963  0.3952427937713827  1.0000
