data_image0
_chemical_formula_structural       NC8NC6H8C6FH5C8H10Zn2C4O8
_chemical_formula_sum              "N2 C32 H23 F1 Zn2 O8"
_cell_length_a       17.457602349358154
_cell_length_b       9.275642734913903
_cell_length_c       9.275657083861812
_cell_angle_alpha    85.77689565722392
_cell_angle_beta     92.37146316173272
_cell_angle_gamma    92.29444944329062

_space_group_name_H-M_alt    "P 1"
_space_group_IT_number       1

loop_
  _space_group_symop_operation_xyz
  'x, y, z'

loop_
  _atom_site_type_symbol
  _atom_site_label
  _atom_site_symmetry_multiplicity
  _atom_site_fract_x
  _atom_site_fract_y
  _atom_site_fract_z
  _atom_site_occupancy
  N   N1        1.0  0.7384657991011893  0.6064354800616132  0.47454532586369313  1.0000
  C   C1        1.0  0.6771559205883342  0.5553602940447182  0.46281481871628904  1.0000
  C   C2        1.0  0.6008838356868393  0.49182916262053644  0.4482326489706181  1.0000
  C   C3        1.0  0.5422239594716026  0.5368522572810328  0.531292108034694  1.0000
  C   C4        1.0  0.46740002019407006  0.4756776067502593  0.5173894640881946  1.0000
  C   C5        1.0  0.40514070243022604  0.5232166637521856  0.6053527150592255  1.0000
  C   C6        1.0  0.33099297876394734  0.5434289326271105  0.543461980848791  1.0000
  C   C7        1.0  0.2723314046547201  0.5882482967250708  0.626641410230774  1.0000
  C   C8        1.0  0.1967605789673567  0.609121521643361  0.5622919166116775  1.0000
  N   N2        1.0  0.136014511123659  0.6258965082324437  0.5105550980003519  1.0000
  C   C9        1.0  0.2873243164616305  0.6131282637423929  0.7722755366724976  1.0000
  C   C10       1.0  0.3606877849960224  0.5933502240179069  0.8345959172230302  1.0000
  C   C11       1.0  0.4193365449038242  0.5487333727294035  0.7519241564657457  1.0000
  C   C12       1.0  0.4525276803095037  0.36871952221853466  0.4188381976486033  1.0000
  C   C13       1.0  0.5111755371636819  0.32400818697706857  0.3362222641576924  1.0000
  C   C14       1.0  0.5852126104382401  0.38531067008341324  0.35073497796676834  1.0000
  H   H1        1.0  0.5546970078513274  0.6207471298514846  0.6051424922154909  1.0000
  H   H2        1.0  0.31907422511746  0.5262427971765324  0.43027812681503685  1.0000
  H   H3        1.0  0.2423560934796242  0.6477558928965967  0.8375235517241602  1.0000
  H   H4        1.0  0.37210442839445823  0.612264696943688  0.9473639989445994  1.0000
  H   H5        1.0  0.4754940399453861  0.532330547162188  0.8030964373014746  1.0000
  H   H6        1.0  0.39581493584825794  0.3182991890708946  0.40706700150512876  1.0000
  H   H7        1.0  0.4992293527401229  0.2413470374142972  0.2610411368445049  1.0000
  H   H8        1.0  0.6301728588490539  0.3497196974862964  0.28605498148452235  1.0000
  C   C15       1.0  0.9348688149388118  0.19250911094996148  0.49295525515499206  1.0000
  C   C16       1.0  0.9206181125770492  0.2744554874329974  0.36143721162493336  1.0000
  C   C17       1.0  0.9136013916281005  0.20816839165748235  0.23101910453514485  1.0000
  C   C18       1.0  0.9207885175371775  0.059219960262176796  0.22982110535877265  1.0000
  C   C19       1.0  0.9336620228473932  0.9756063209938003  0.3591978553930124  1.0000
  C   C20       1.0  0.9396187239088093  0.039812159822658844  0.4921582866118668  1.0000
  F   F1        1.0  0.9007085102310871  0.28899628269402866  0.1051606432056178  1.0000
  H   H9        1.0  0.012660709879162901  0.27711682838738283  0.8219916799554139  1.0000
  H   H10       1.0  0.9167098245810856  0.3908800702905111  0.35923829965867804  1.0000
  H   H11       1.0  0.9156500085428492  0.00798925577281051  0.12853784439787574  1.0000
  H   H12       1.0  0.9371444204072531  0.8595965191825311  0.35555144817172546  1.0000
  H   H13       1.0  0.9889206897018229  0.7459242275330129  0.7152412841959279  1.0000
  C   C21       1.0  0.9391855639072799  0.6140814677814805  0.06941593776743571  1.0000
  C   C22       1.0  0.979538775410271  0.7260022415477432  0.13785220745061832  1.0000
  C   C23       1.0  0.0131531242299876  0.843766165194396  0.05699016464036477  1.0000
  C   C24       1.0  0.007547244455521573  0.8486807938235685  0.905835982541078  1.0000
  C   C25       1.0  0.9688544904070135  0.7374870557075477  0.8360965769087594  1.0000
  C   C26       1.0  0.9353019535829902  0.618239790711572  0.915697648874636  1.0000
  C   C27       1.0  0.057084925331166936  0.9615757739055883  0.13200182154511642  1.0000
  C   C28       1.0  0.14111355287827765  0.9245331144404978  0.15751733292453962  1.0000
  H   H14       1.0  0.9034622411327191  0.38224313043399727  0.36434053514802534  1.0000
  H   H15       1.0  0.983490029457193  0.7235216986439625  0.2549390099850426  1.0000
  H   H16       1.0  0.033902785854784234  0.9381232559791959  0.8417093112480458  1.0000
  H   H17       1.0  0.9669119739657638  0.7430126647251556  0.7189381613279693  1.0000
  H   H18       1.0  0.8437973333472145  0.44753507110482893  0.6398156316592787  1.0000
  H   H19       1.0  0.053470993782353426  0.06610495966228447  0.06568247010228312  1.0000
  H   H20       1.0  0.03166241176945017  0.9766659793663819  0.23755189217484318  1.0000
  H   H21       1.0  0.14599914200606  0.8221695007153034  0.22685669989158685  1.0000
  H   H22       1.0  0.16803443843015864  0.9125768546346038  0.05280023171570303  1.0000
  H   H23       1.0  0.17244787027128083  0.01264620057476673  0.21279675547475052  1.0000
  Zn  Zn1       1.0  0.8531897100300726  0.6120476844084215  0.4849452916747905  1.0000
  Zn  Zn2       1.0  0.02129046549821889  0.620272533347469  0.5001669404394737  1.0000
  C   C29       1.0  0.9360021105499057  0.6117063448416464  0.7557375125680814  1.0000
  C   C30       1.0  0.9384799101889034  0.6206157837424597  0.22937502548201905  1.0000
  C   C31       1.0  0.938743277502125  0.8796254428734047  0.486566570882637  1.0000
  C   C32       1.0  0.9357386758063135  0.3526949499646208  0.49854604042613504  1.0000
  O   O1        1.0  0.0020364117070692522  0.6259237531907775  0.28883529886121306  1.0000
  O   O2        1.0  3.0188647622164666e-05  0.6126397550306633  0.7078297046260169  1.0000
  O   O3        1.0  0.002242848787623375  0.8289877802763923  0.49047218550340377  1.0000
  O   O4        1.0  0.9998236947593212  0.4095757349279614  0.5061927047397354  1.0000
  O   O5        1.0  0.874656423404476  0.8227444800227257  0.47891952217254574  1.0000
  O   O6        1.0  0.8724437733303506  0.6063981877178724  0.6962769628345045  1.0000
  O   O7        1.0  0.8744500041091169  0.6196821270937665  0.2772808246982892  1.0000
  O   O8        1.0  0.8722372866046212  0.4033340990428331  0.4946383386189197  1.0000
