data_image0
_chemical_formula_structural       NC8NC6H8C6SCH8C6H6Zn2C4O8
_chemical_formula_sum              "N2 C31 H22 S1 Zn2 O8"
_cell_length_a       17.457602349358154
_cell_length_b       10.302809429070853
_cell_length_c       10.681121600428288
_cell_angle_alpha    85.56070011221655
_cell_angle_beta     92.87590736930572
_cell_angle_gamma    91.68806441137123

_space_group_name_H-M_alt    "P 1"
_space_group_IT_number       1

loop_
  _space_group_symop_operation_xyz
  'x, y, z'

loop_
  _atom_site_type_symbol
  _atom_site_label
  _atom_site_symmetry_multiplicity
  _atom_site_fract_x
  _atom_site_fract_y
  _atom_site_fract_z
  _atom_site_occupancy
  N   N1        1.0  0.7224249262631787  0.4523865911085394  0.6755698790305689  1.0000
  C   C1        1.0  0.6613469962249652  0.40647558127668093  0.6653333746815544  1.0000
  C   C2        1.0  0.585363468223773  0.3493679976410451  0.6526083643717442  1.0000
  C   C3        1.0  0.5268348355622972  0.38951729074274666  0.7248305353699993  1.0000
  C   C4        1.0  0.4522893901721452  0.3345273142959515  0.7126980139146493  1.0000
  C   C5        1.0  0.3901698609566812  0.37691905411200577  0.7891840321492558  1.0000
  C   C6        1.0  0.3156231973037248  0.39538186941387243  0.7354125121864588  1.0000
  C   C7        1.0  0.25709456180806745  0.43534729362285196  0.8077387805459684  1.0000
  C   C8        1.0  0.1811097428444115  0.45441577953055545  0.7518309405501902  1.0000
  N   N2        1.0  0.12003086490530829  0.4697404644733689  0.7068811828461323  1.0000
  C   C9        1.0  0.2726204272371796  0.45709296783952125  0.9343269211173677  1.0000
  C   C10       1.0  0.3463823868485856  0.439019018262071  0.9884721933358467  1.0000
  C   C11       1.0  0.4048994174045034  0.3992335917930294  0.916587295493577  1.0000
  C   C12       1.0  0.4375612233479325  0.2387108375650835  0.6269615887621909  1.0000
  C   C13       1.0  0.4960781378379832  0.19884013753857843  0.5551251320897479  1.0000
  C   C14       1.0  0.5698388175513175  0.25394245371820867  0.5677879579575691  1.0000
  H   H1        1.0  0.5391788698124352  0.46468826079663406  0.7890810500021381  1.0000
  H   H2        1.0  0.3032781992535156  0.38041643402771275  0.6370325648635484  1.0000
  H   H3        1.0  0.22775945231374714  0.48796607495098443  0.9910610134484914  1.0000
  H   H4        1.0  0.3582136737898156  0.45554163382291435  0.08649221366934745  1.0000
  H   H5        1.0  0.46138503165343714  0.38424631315294966  0.9610467285215976  1.0000
  H   H6        1.0  0.38107657130037864  0.1933893138488787  0.6166902576501354  1.0000
  H   H7        1.0  0.4842479133424782  0.12478528681415813  0.48971910273019525  1.0000
  H   H8        1.0  0.6146998364245829  0.22219991615031787  0.5115467321784215  1.0000
  C   C15       1.0  0.9212315791343805  0.07981025488738691  0.6912312618086098  1.0000
  C   C16       1.0  0.965490242769164  0.08940601357725919  0.5845264459561721  1.0000
  C   C17       1.0  0.9873013589524788  0.9771923336753062  0.5312750834240156  1.0000
  C   C18       1.0  0.9654901460310038  0.8542548514344416  0.5845263710371065  1.0000
  C   C19       1.0  0.9212315485546855  0.8423071149217917  0.691231252826334  1.0000
  C   C20       1.0  0.8992986401527524  0.9557265465122929  0.7440369130992388  1.0000
  S   S1        1.0  0.043989879852522895  0.9909491230145706  0.3951013761321025  1.0000
  C   C21       1.0  0.9608501233139373  0.995618370873898  0.28520665817904023  1.0000
  H   H9        1.0  0.904527398172335  0.4035082945065216  0.7314142307301947  1.0000
  H   H10       1.0  0.9830693080800162  0.18378424875151045  0.5421415514759562  1.0000
  H   H11       1.0  0.9830691387763337  0.7684338478740965  0.5421414405571072  1.0000
  H   H12       1.0  0.8651474456360673  0.947418336066953  0.8263292354344283  1.0000
  H   H13       1.0  0.9045261449769784  0.5104924718313146  0.7314127549764957  1.0000
  H   H14       1.0  0.9256426749532151  0.9046265473677393  0.2991328949767482  1.0000
  H   H15       1.0  0.9256433934476608  0.08086154039271398  0.29913249633383887  1.0000
  H   H16       1.0  0.9806601947241572  0.004424432462688088  0.18778375992272744  1.0000
  C   C22       1.0  0.9212315783300422  0.46105866141759355  0.3234860078819424  1.0000
  C   C23       1.0  0.8663177757277125  0.38645580215386  0.2577390812588207  1.0000
  C   C24       1.0  0.8663177278269084  0.3864558833106575  0.1268569375337516  1.0000
  C   C25       1.0  0.9212315180171389  0.4610587224271965  0.05897643880866443  1.0000
  C   C26       1.0  0.976099996353998  0.5355997662421617  0.12471921581850287  1.0000
  C   C27       1.0  0.9760999865381452  0.5355997456819483  0.25561151370855506  1.0000
  H   H17       1.0  0.9767639894623285  0.5365026274786089  0.6211169044401077  1.0000
  H   H18       1.0  0.8232737448438504  0.32797855530222964  0.3073862169175863  1.0000
  H   H19       1.0  0.8232737288207018  0.3279786157155835  0.0788821864302327  1.0000
  H   H20       1.0  0.01914964824430676  0.5940847166595906  0.07511685817931113  1.0000
  H   H21       1.0  0.01914960958921408  0.5940846694601325  0.3035412226196459  1.0000
  H   H22       1.0  0.9767642289116298  0.5365021856001002  0.7591878975832427  1.0000
  Zn  Zn1       1.0  0.8371654114264092  0.4573910624499469  0.6846128755504199  1.0000
  Zn  Zn2       1.0  0.005290365492177651  0.46472534853733305  0.6978484390274304  1.0000
  C   C28       1.0  0.9212298384188571  0.4558865018282543  0.9199528817857918  1.0000
  C   C29       1.0  0.921227774418918  0.46623162737251644  0.46250870023683377  1.0000
  C   C30       1.0  0.9212276015907804  0.6981787937514681  0.6862406079676322  1.0000
  C   C31       1.0  0.9212299538777686  0.22393777311660146  0.6962210363039429  1.0000
  O   O1        1.0  0.9850290416692561  0.4707453813243414  0.5141888131413273  1.0000
  O   O2        1.0  0.9850315211578687  0.45693832188712835  0.8783178948192403  1.0000
  O   O3        1.0  0.9850288548020387  0.6525923742989008  0.6895935124467711  1.0000
  O   O4        1.0  0.9850316506554316  0.2750913356972784  0.702913097101254  1.0000
  O   O5        1.0  0.8574240688903593  0.6470250727885831  0.679548212953361  1.0000
  O   O6        1.0  0.8574267352426198  0.451372580208093  0.8682725285536461  1.0000
  O   O7        1.0  0.8574242558051051  0.4651795944052046  0.5041419412571739  1.0000
  O   O8        1.0  0.8574268647881395  0.26952553949201397  0.6928663191064084  1.0000
