data_image0
_chemical_formula_structural       NC8NC6H8C6NCOH7C6NCOH7Zn2C4O8
_chemical_formula_sum              "N4 C32 H22 O10 Zn2"
_cell_length_a       17.457602349358154
_cell_length_b       10.299619329790078
_cell_length_c       10.29962270195845
_cell_angle_alpha    85.58556334847248
_cell_angle_beta     92.8939802036364
_cell_angle_gamma    91.71362633690529

_space_group_name_H-M_alt    "P 1"
_space_group_IT_number       1

loop_
  _space_group_symop_operation_xyz
  'x, y, z'

loop_
  _atom_site_type_symbol
  _atom_site_label
  _atom_site_symmetry_multiplicity
  _atom_site_fract_x
  _atom_site_fract_y
  _atom_site_fract_z
  _atom_site_occupancy
  N   N1        1.0  0.7225495607593161  0.452374544900942  0.6267084278487112  1.0000
  C   C1        1.0  0.6614573398971383  0.4064455289787716  0.6160871161800145  1.0000
  C   C2        1.0  0.5854560374640113  0.34931555080479426  0.60288374699518  1.0000
  C   C3        1.0  0.5269524718228095  0.3895029181695304  0.6777853211020708  1.0000
  C   C4        1.0  0.4523899350602879  0.33449142016745204  0.6651966458052068  1.0000
  C   C5        1.0  0.390296918627847  0.37692344197880145  0.7445202375320665  1.0000
  C   C6        1.0  0.3157445015497847  0.3953730698029039  0.6887598812145064  1.0000
  C   C7        1.0  0.25724090466625604  0.4353765473654019  0.7637693843542566  1.0000
  C   C8        1.0  0.181250069563498  0.45443128178003134  0.7057936763495982  1.0000
  N   N2        1.0  0.1201663529747871  0.46974490857431905  0.6591813573609198  1.0000
  C   C9        1.0  0.2727977244417228  0.4571737116610115  0.8950477841622146  1.0000
  C   C10       1.0  0.3465656155482487  0.43911320337143  0.9511957814262733  1.0000
  C   C11       1.0  0.4050577432325709  0.3992899357385822  0.8766440152202253  1.0000
  C   C12       1.0  0.4376191545415131  0.23861464769656449  0.5762734135635281  1.0000
  C   C13       1.0  0.4961111530175096  0.19870609686668605  0.5017718716121031  1.0000
  C   C14       1.0  0.569889059448759  0.25383015696418565  0.5149105024674896  1.0000
  H   H1        1.0  0.5393293393752409  0.4647201290372265  0.7444244372355484  1.0000
  H   H2        1.0  0.3033759633279761  0.38036822460539743  0.586735068141804  1.0000
  H   H3        1.0  0.227956263057269  0.48807651914532935  0.9538865968884873  1.0000
  H   H4        1.0  0.3584207868869746  0.45567558992151125  0.05284753455605762  1.0000
  H   H5        1.0  0.4615481887999817  0.3843136479940248  0.9227478951707362  1.0000
  H   H6        1.0  0.3811203621302786  0.19327529041087677  0.5656160593509902  1.0000
  H   H7        1.0  0.48424816363635437  0.12460494746806128  0.43393459207952967  1.0000
  H   H8        1.0  0.6147304305810014  0.22205782037740773  0.45658269813135144  1.0000
  C   C15       1.0  0.9212598557389321  0.07968692830941038  0.6429030743025759  1.0000
  C   C16       1.0  0.8842308084490409  0.08612036972896964  0.5183364550772132  1.0000
  C   C17       1.0  0.8667171220750063  0.9726833725276673  0.45476535095319215  1.0000
  C   C18       1.0  0.8844593153024679  0.8509719282476611  0.5184550886556643  1.0000
  C   C19       1.0  0.9214633613329596  0.8424228580198404  0.6429985650025949  1.0000
  C   C20       1.0  0.9399260986175221  0.957403293427183  0.7042952492057606  1.0000
  N   N3        1.0  0.8277606956762772  0.9830189624428827  0.32811968099816413  1.0000
  C   C21       1.0  0.839804637607654  0.8988327827189471  0.22692224417625861  1.0000
  O   O1        1.0  0.8936690254183213  0.8194633187026288  0.23678071228679665  1.0000
  H   H9        1.0  0.9903791097276204  0.27472160468512774  0.878455822188501  1.0000
  H   H10       1.0  0.8693537928616956  0.17955680993929057  0.4695243685074397  1.0000
  H   H11       1.0  0.8680446664002716  0.7628465081941906  0.47219313851186206  1.0000
  H   H12       1.0  0.9684803971139889  0.9515686850103208  0.8003157125672564  1.0000
  H   H13       1.0  0.9346379871441268  0.5115781307648745  0.6916385974137793  1.0000
  H   H14       1.0  0.7922434643799319  0.0620618935075532  0.3041865584499073  1.0000
  H   H15       1.0  0.8033660322837726  0.9060830766620024  0.13866766952329912  1.0000
  C   C22       1.0  0.9212885809905869  0.4609250847511841  0.26158804351417886  1.0000
  C   C23       1.0  0.8408991338533245  0.46743178089128845  0.25293022246453667  1.0000
  C   C24       1.0  0.8005406374209015  0.47284253028030054  0.13161766741585645  1.0000
  C   C25       1.0  0.8410688523547348  0.46771754884546013  0.017771919433574812  1.0000
  C   C26       1.0  0.9214346629887848  0.46118466602679353  0.02431352590431457  1.0000
  C   C27       1.0  0.9611091446400531  0.4583475846606728  0.1466898032964714  1.0000
  N   N4        1.0  0.7181780189610951  0.477480058157316  0.12677468915811096  1.0000
  C   C28       1.0  0.6731864534506422  0.5463979383049371  0.025034081857905344  1.0000
  O   O2        1.0  0.7041128478419165  0.6228187080968142  0.940457616472667  1.0000
  H   H16       1.0  0.07286832035278246  0.44725870945776114  0.4852733590245033  1.0000
  H   H17       1.0  0.8092211501661809  0.46942726077683306  0.340499127198612  1.0000
  H   H18       1.0  0.8099294514433609  0.4661120417784479  0.9243765466179044  1.0000
  H   H19       1.0  0.02308152761068394  0.4533484843230533  0.15248670170141576  1.0000
  H   H20       1.0  0.9522053358411864  0.4567040681537895  0.6995231996002751  1.0000
  H   H21       1.0  0.6890346611529194  0.43582761405743264  0.20648772410380678  1.0000
  H   H22       1.0  0.6113100897071987  0.5355950711746169  0.02287470362932953  1.0000
  Zn  Zn1       1.0  0.8372931785363172  0.45738377644930295  0.6360869117637176  1.0000
  Zn  Zn2       1.0  0.0054227201428871386  0.4647250327122652  0.6498135044691615  1.0000
  C   C29       1.0  0.9214039578926131  0.4559617948559924  0.8801413257160402  1.0000
  C   C30       1.0  0.9213137772176355  0.4661487331521277  0.4057593680802929  1.0000
  C   C31       1.0  0.9214199768376807  0.6982475720603605  0.637805083414795  1.0000
  C   C32       1.0  0.9212977004986017  0.2238613931472162  0.6480956747398334  1.0000
  O   O3        1.0  0.9851265166149258  0.47068213996539177  0.45935375131183465  1.0000
  O   O4        1.0  0.9851976499888907  0.45699925182113255  0.836964734773566  1.0000
  O   O5        1.0  0.9852097256359729  0.6526480439389104  0.6412764344920787  1.0000
  O   O6        1.0  0.9851143835804496  0.275033354599721  0.6550419495374316  1.0000
  O   O7        1.0  0.8576014577243928  0.647075452058048  0.6308584620044042  1.0000
  O   O8        1.0  0.857589382476915  0.4514282202370148  0.826546693236553  1.0000
  O   O9        1.0  0.8575182488428545  0.4651110625956618  0.4489341483978233  1.0000
  O   O10       1.0  0.8575061158214105  0.2694622679740848  0.6446224439882677  1.0000
