data_image0
_chemical_formula_structural       NC9NC5H8C6OCH8C7OH6Zn2C4O8
_chemical_formula_sum              "N2 C32 H22 O10 Zn2"
_cell_length_a       17.807436237873137
_cell_length_b       9.273888216677433
_cell_length_c       9.274081674992354
_cell_angle_alpha    86.26755085646467
_cell_angle_beta     89.07685020002326
_cell_angle_gamma    87.81887448081709

_space_group_name_H-M_alt    "P 1"
_space_group_IT_number       1

loop_
  _space_group_symop_operation_xyz
  'x, y, z'

loop_
  _atom_site_type_symbol
  _atom_site_label
  _atom_site_symmetry_multiplicity
  _atom_site_fract_x
  _atom_site_fract_y
  _atom_site_fract_z
  _atom_site_occupancy
  N   N1        1.0  0.7042391454367029  0.5268483726422619  0.40398450856136847  1.0000
  C   C1        1.0  0.64389288053512  0.48765153669260286  0.39160854932655376  1.0000
  C   C2        1.0  0.5688287596182925  0.43889498918064995  0.37621420002212  1.0000
  C   C3        1.0  0.5515060988056601  0.3585145783917485  0.25938132303215666  1.0000
  C   C4        1.0  0.47862362917416756  0.31105105269214417  0.24434224683567218  1.0000
  C   C5        1.0  0.422017400352898  0.34354828357032496  0.3460985273165107  1.0000
  C   C6        1.0  0.3445611794062921  0.29323524693738023  0.3302074397906387  1.0000
  C   C7        1.0  0.2818231920101874  0.38430441571137175  0.35932351220900927  1.0000
  C   C8        1.0  0.2087995484982595  0.3366155109779978  0.34429881468533674  1.0000
  C   C9        1.0  0.1449946379365702  0.43067766806373853  0.3738295002040932  1.0000
  N   N2        1.0  0.093708514465653  0.5062971457888756  0.3975713417714408  1.0000
  C   C10       1.0  0.1979319289022616  0.19757064024380866  0.3001288823314403  1.0000
  C   C11       1.0  0.2598126551305436  0.10648600095013738  0.271003442626808  1.0000
  C   C12       1.0  0.332719838327042  0.15373464164397332  0.28580176254873346  1.0000
  C   C13       1.0  0.4400278588089678  0.4244800039808123  0.4631767052407245  1.0000
  C   C14       1.0  0.5129648294511929  0.4717304867053367  0.478042258522656  1.0000
  H   H1        1.0  0.5942736307228812  0.33281683714335286  0.17969358859358642  1.0000
  H   H2        1.0  0.4663024251036822  0.2505893420936358  0.15209042798124273  1.0000
  H   H3        1.0  0.2896580188021711  0.49285106501613396  0.3917631999314506  1.0000
  H   H4        1.0  0.14170003120258  0.15965954169998442  0.28823372475217046  1.0000
  H   H5        1.0  0.2512787837671585  0.9988381419456953  0.23723460367525884  1.0000
  H   H6        1.0  0.3798062005847817  0.08051873734512616  0.2643975271669561  1.0000
  H   H7        1.0  0.3979759597906897  0.4495920695991973  0.5442991407510172  1.0000
  H   H8        1.0  0.525810824800615  0.5335374137106332  0.569142762211782  1.0000
  C   C15       1.0  0.9011884680067488  0.0929806484333826  0.3992688233151753  1.0000
  C   C16       1.0  0.8840313401012857  0.17599895279700073  0.2708056224206974  1.0000
  C   C17       1.0  0.8604637194740382  0.11141860374249912  0.148102957703256  1.0000
  C   C18       1.0  0.8539156536407781  0.9608296119081441  0.15340286994415275  1.0000
  C   C19       1.0  0.8718676239092032  0.8765494999329704  0.27908034697439255  1.0000
  C   C20       1.0  0.8967663723580749  0.9401535392915933  0.40229938714602853  1.0000
  O   O1        1.0  0.8437491686179456  0.20061850190377073  0.023870136783168183  1.0000
  C   C21       1.0  0.8190710638752188  0.14981142390847757  0.8916286576308172  1.0000
  H   H9        1.0  0.9062297632572933  0.17256708374383556  0.7538962784020455  1.0000
  H   H10       1.0  0.8872183239369309  0.29266819783956843  0.2664807370119937  1.0000
  H   H11       1.0  0.8356502272046886  0.9075239176195911  0.060481160519493926  1.0000
  H   H12       1.0  0.8679639927945366  0.760282778489091  0.27866466214673413  1.0000
  H   H13       1.0  0.9033138084657509  0.64300216316332  0.6401040174013377  1.0000
  H   H14       1.0  0.7650927281579818  0.09468404995457136  0.9091295205691066  1.0000
  H   H15       1.0  0.8623476056542472  0.07453354005215584  0.8476951887995123  1.0000
  H   H16       1.0  0.8101737876888583  0.2432546130906612  0.8120844686500295  1.0000
  C   C22       1.0  0.9002654552831664  0.5127188607262638  0.9774799635046723  1.0000
  C   C23       1.0  0.9609717549820268  0.5722759565313125  0.045225607892317665  1.0000
  C   C24       1.0  0.01736671408766477  0.6426991174891066  0.9640703678026195  1.0000
  C   C25       1.0  0.013038087923853414  0.6539571735900489  0.8130574611172285  1.0000
  C   C26       1.0  0.9539108704596873  0.5934945109747549  0.7440801162999793  1.0000
  C   C27       1.0  0.8976894061191576  0.5204153153371736  0.8240881991546138  1.0000
  C   C28       1.0  0.07981032377748432  0.7050352339434705  0.03871628050432596  1.0000
  O   O2        1.0  0.13117840361049815  0.7695110958260476  0.9687653448165654  1.0000
  H   H17       1.0  0.7226955703605487  0.42841192811302187  0.09144552945995854  1.0000
  H   H18       1.0  0.9634828550527024  0.5667905149354924  0.16220490239940277  1.0000
  H   H19       1.0  0.055771457648936096  0.7083395640719976  0.7479437300670977  1.0000
  H   H20       1.0  0.9531749095793409  0.6009841655035606  0.627044495927298  1.0000
  H   H21       1.0  0.7793551611063475  0.4576646205338586  0.5507114260520551  1.0000
  H   H22       1.0  0.0820490711453441  0.6957493507394359  0.1555545894986612  1.0000
  Zn  Zn1       1.0  0.8166315858680562  0.5209139593479917  0.402142130066226  1.0000
  Zn  Zn2       1.0  0.9813160811537905  0.5122199085991745  0.39942552881372917  1.0000
  C   C29       1.0  0.8982046488265265  0.5132141388661158  0.6640406200373057  1.0000
  C   C30       1.0  0.8997448066141357  0.5199214554670537  0.1375271571708303  1.0000
  C   C31       1.0  0.8976158663205378  0.77996781349737  0.3959823736259893  1.0000
  C   C32       1.0  0.900333541737162  0.25316605145040505  0.4055854751616479  1.0000
  O   O3        1.0  0.9620670127134572  0.5190330720875931  0.19020949888494365  1.0000
  O   O4        1.0  0.9608741710520154  0.5075028469295375  0.6092960219836288  1.0000
  O   O5        1.0  0.9603978746833037  0.722909870857829  0.3928371107130262  1.0000
  O   O6        1.0  0.9625432531615151  0.30362606046220986  0.4066683030374898  1.0000
  O   O7        1.0  0.8354043576616107  0.7295078104533104  0.3948993567619312  1.0000
  O   O8        1.0  0.8358806452145636  0.5141025188787678  0.6113581973724975  1.0000
  O   O9        1.0  0.8370734924618083  0.5256326780122893  0.19226994100128136  1.0000
  O   O10       1.0  0.8375497326317992  0.3102256570523523  0.40872885319134955  1.0000
