data_image0
_chemical_formula_structural       NC9NC5H8C6SCH8C7NH5Zn2C4O8
_chemical_formula_sum              "N3 C32 H21 S1 Zn2 O8"
_cell_length_a       17.807436237873137
_cell_length_b       10.302809429070853
_cell_length_c       10.302823150593486
_cell_angle_alpha    85.5606949210533
_cell_angle_beta     89.3921433004221
_cell_angle_gamma    88.39000425637651

_space_group_name_H-M_alt    "P 1"
_space_group_IT_number       1

loop_
  _space_group_symop_operation_xyz
  'x, y, z'

loop_
  _atom_site_type_symbol
  _atom_site_label
  _atom_site_symmetry_multiplicity
  _atom_site_fract_x
  _atom_site_fract_y
  _atom_site_fract_z
  _atom_site_occupancy
  N   N1        1.0  0.707411847980668  0.3873421180245682  0.5575853568848081  1.0000
  C   C1        1.0  0.6468243336436885  0.3521631773784011  0.546564902989052  1.0000
  C   C2        1.0  0.5714601249394118  0.3084044493222806  0.5328566549309073  1.0000
  C   C3        1.0  0.5533687955864997  0.2370118094412621  0.4278869089142465  1.0000
  C   C4        1.0  0.48019403777401226  0.19441399476329413  0.4144944811756772  1.0000
  C   C5        1.0  0.4240618909230642  0.22283140547384894  0.506039357890604  1.0000
  C   C6        1.0  0.3462959864213163  0.17767578047389598  0.49188872397776895  1.0000
  C   C7        1.0  0.2841195976525384  0.25940688702022086  0.51781948593345  1.0000
  C   C8        1.0  0.2108025350188831  0.21660609598653746  0.5044407349168534  1.0000
  C   C9        1.0  0.1475760556505766  0.3010277327339166  0.5307352860540622  1.0000
  N   N2        1.0  0.096754954533202  0.36889688804591825  0.5518753789077395  1.0000
  C   C10       1.0  0.1990783163790154  0.09181629716804274  0.46510588008578724  1.0000
  C   C11       1.0  0.2603973353343431  0.010071342596651212  0.43916673107329607  1.0000
  C   C12       1.0  0.3335949662000861  0.05247771402845447  0.4523430074373931  1.0000
  C   C13       1.0  0.4428446244971922  0.2947182597956661  0.6112282645866609  1.0000
  C   C14       1.0  0.5160722537956801  0.3371257390552602  0.6244650905844784  1.0000
  H   H1        1.0  0.5957637688643805  0.2145338914826953  0.35619676506245046  1.0000
  H   H2        1.0  0.4672815531428453  0.14074860103484776  0.33160016053431085  1.0000
  H   H3        1.0  0.2926170197601898  0.3568418927790544  0.5466874403027777  1.0000
  H   H4        1.0  0.1426133069155907  0.05779068621686623  0.45451433070767533  1.0000
  H   H5        1.0  0.2512015691405812  0.9134561940851363  0.40909874429110604  1.0000
  H   H6        1.0  0.3802358285398315  0.9867528344942433  0.4333005993106904  1.0000
  H   H7        1.0  0.4011665308287007  0.3166572844487372  0.6842124983482862  1.0000
  H   H8        1.0  0.5295130883400463  0.39201135316933544  0.7063181133443335  1.0000
  C   C15       1.0  0.9020870061358819  0.9968659286493243  0.554735976915762  1.0000
  C   C16       1.0  0.9454259075931487  0.002476803104594083  0.4398642633706369  1.0000
  C   C17       1.0  0.9667837556790477  0.8882993320920087  0.382563711477395  1.0000
  C   C18       1.0  0.9454258128653485  0.767325649671747  0.439864194987744  1.0000
  C   C19       1.0  0.9020869761916779  0.759362791437018  0.5547359705393844  1.0000
  C   C20       1.0  0.8806098669005725  0.8747569799234582  0.6115861471856037  1.0000
  S   S1        1.0  0.022294203118821354  0.8969520993762835  0.23594777935148437  1.0000
  C   C21       1.0  0.9408822111194196  0.9091069688961091  0.1299995275518353  1.0000
  H   H9        1.0  0.8857299633953748  0.3220679501395467  0.5979980151157236  1.0000
  H   H10       1.0  0.9626396532566476  0.0952722851080281  0.39423545886389344  1.0000
  H   H11       1.0  0.9626394874713431  0.6799218994741322  0.39423536012580707  1.0000
  H   H12       1.0  0.8471683860177341  0.8695236150706256  0.7001786543035993  1.0000
  H   H13       1.0  0.885728736243236  0.4290522402977818  0.5979966054845136  1.0000
  H   H14       1.0  0.9064064256389108  0.8212850988637749  0.14781708915219993  1.0000
  H   H15       1.0  0.9064071292019766  0.997520027198075  0.14781660689510878  1.0000
  H   H16       1.0  0.9602805982726788  0.9161294106066218  0.027097655895406803  1.0000
  C   C22       1.0  0.9020869985494967  0.37811437022055805  0.17348787204547533  1.0000
  C   C23       1.0  0.8233608880566003  0.3912540669564488  0.1728129775160283  1.0000
  C   C24       1.0  0.7841939059997995  0.39779108336474756  0.055374703377003565  1.0000
  C   C25       1.0  0.8233608734482329  0.39125398287303503  0.9375119838817274  1.0000
  C   C26       1.0  0.902086998100921  0.3781143634969695  0.935984038666982  1.0000
  C   C27       1.0  0.9410387174439907  0.3716131387262034  0.054524895993102396  1.0000
  C   C28       1.0  0.7034881276132181  0.41126098717135284  0.05581193274593588  1.0000
  N   N3        1.0  0.6386270515752458  0.4220865474895743  0.056163287616324276  1.0000
  H   H17       1.0  0.9319068124161585  0.37313765038775815  0.5010657344808438  1.0000
  H   H18       1.0  0.7923123122664962  0.39643619485303105  0.26340544613801264  1.0000
  H   H19       1.0  0.7923123420620923  0.39643609785007916  0.847255909203311  1.0000
  H   H20       1.0  0.001749458109296942  0.36148030002758325  0.054196007357540044  1.0000
  H   H21       1.0  0.9319067872453218  0.3731374431689649  0.6080830345424011  1.0000
  Zn  Zn1       1.0  0.819767857064751  0.3820157588546902  0.5559450889957398  1.0000
  Zn  Zn2       1.0  0.9843989272521423  0.3742126642473831  0.5535263200266187  1.0000
  C   C29       1.0  0.9020853058235263  0.3729423105691341  0.7918559524977102  1.0000
  C   C30       1.0  0.9020832762594565  0.383287665446699  0.3176155575377151  1.0000
  C   C31       1.0  0.9020831111592295  0.6152348261119964  0.5495624583595347  1.0000
  C   C32       1.0  0.9020854147467452  0.14099359273645318  0.5599091217180485  1.0000
  O   O1        1.0  0.9645586601792554  0.3820569728204146  0.3650682151937126  1.0000
  O   O2        1.0  0.9645610948723509  0.3682496555140209  0.7425671314331406  1.0000
  O   O3        1.0  0.9645584804382424  0.5639039659407459  0.5469134330238477  1.0000
  O   O4        1.0  0.9645612184359333  0.18640267434377011  0.5607218170845525  1.0000
  O   O5        1.0  0.8396055097004556  0.5698257514225298  0.5487495927563846  1.0000
  O   O6        1.0  0.8396081241310673  0.374173000827414  0.7444032219420975  1.0000
  O   O7        1.0  0.83960568948798  0.38798027288924963  0.3669027447959823  1.0000
  O   O8        1.0  0.8396082477415839  0.19232596512675126  0.5625564440238537  1.0000
