data_image0
_chemical_formula_structural       NC8NC6H8C7OH6C6H6Zn2C4O8
_chemical_formula_sum              "N2 C31 H20 O9 Zn2"
_cell_length_a       17.457602349358154
_cell_length_b       9.274078303013075
_cell_length_c       10.681121600428288
_cell_angle_alpha    85.73623897785308
_cell_angle_beta     92.87590736930572
_cell_angle_gamma    91.09880916489897

_space_group_name_H-M_alt    "P 1"
_space_group_IT_number       1

loop_
  _space_group_symop_operation_xyz
  'x, y, z'

loop_
  _atom_site_type_symbol
  _atom_site_label
  _atom_site_symmetry_multiplicity
  _atom_site_fract_x
  _atom_site_fract_y
  _atom_site_fract_z
  _atom_site_occupancy
  N   N1        1.0  0.7137159247645115  0.6127789085688109  0.6791815559257037  1.0000
  C   C1        1.0  0.6529132926778757  0.5617977794526285  0.6688308838100239  1.0000
  C   C2        1.0  0.5772722010737921  0.4983835982898943  0.6559638630040987  1.0000
  C   C3        1.0  0.5185028196640601  0.5429667234060174  0.7282858740002853  1.0000
  C   C4        1.0  0.4442871127816985  0.48190400447221315  0.7160166079422154  1.0000
  C   C5        1.0  0.38191338834861877  0.5289772178242358  0.7926080425089306  1.0000
  C   C6        1.0  0.3072560154071589  0.5494789487641534  0.7388824343741913  1.0000
  C   C7        1.0  0.2484877337033489  0.5938578996790418  0.8113080855014185  1.0000
  C   C8        1.0  0.1723885736452735  0.6150321876258986  0.7554476634661194  1.0000
  N   N2        1.0  0.1112178037092663  0.6320492330926759  0.7105360139426737  1.0000
  C   C9        1.0  0.2638832047109607  0.6180050275470328  0.9379503014475272  1.0000
  C   C10       1.0  0.3377535418403916  0.5979351061834655  0.9920506288376165  1.0000
  C   C11       1.0  0.3965091392771006  0.5537560308115896  0.9200667958313751  1.0000
  C   C12       1.0  0.4301334939769695  0.3755061667952817  0.6300419141653419  1.0000
  C   C13       1.0  0.4888894866769194  0.33123240079779914  0.5581063102775774  1.0000
  C   C14       1.0  0.5623197542554086  0.3924198655484674  0.5709061601054326  1.0000
  H   H1        1.0  0.5303961033393421  0.6264390962451487  0.7927233176893229  1.0000
  H   H2        1.0  0.2950007551719393  0.5328608260851735  0.6404652722232587  1.0000
  H   H3        1.0  0.2188371041895997  0.6522875638195207  0.9947611665114193  1.0000
  H   H4        1.0  0.3494857535873431  0.6162823740899943  0.09011173626819846  1.0000
  H   H5        1.0  0.45308462232056657  0.5371136526489575  0.9644889597133459  1.0000
  H   H6        1.0  0.3739206051227573  0.32517962288392055  0.6196578811727675  1.0000
  H   H7        1.0  0.4775033201270681  0.24899940439262136  0.4925161273359331  1.0000
  H   H8        1.0  0.6073711121258408  0.3571718844617833  0.514585999564543  1.0000
  C   C15       1.0  0.914756671430287  0.19905761661534438  0.6939164461614413  1.0000
  C   C16       1.0  0.8999261936290822  0.2818029463726104  0.5797005066812453  1.0000
  C   C17       1.0  0.8784686676046294  0.21566049449770341  0.469239361774328  1.0000
  C   C18       1.0  0.8716378077927107  0.06468569776558497  0.4729086885119427  1.0000
  C   C19       1.0  0.8873314095530855  0.9809236120329129  0.584862065849671  1.0000
  C   C20       1.0  0.9101844604566143  0.04575973382281173  0.6958125417620207  1.0000
  C   C21       1.0  0.8626670718862737  0.30581214908143317  0.3514446164646934  1.0000
  O   O1        1.0  0.8429543636276915  0.24955946765157155  0.25073443931615946  1.0000
  H   H9        1.0  0.9123974621794035  0.27557107201603825  0.002059174294131494  1.0000
  H   H10       1.0  0.9033569569672703  0.3988348771912422  0.577270131289336  1.0000
  H   H11       1.0  0.8548598660807251  0.011020769610305292  0.38891237599739803  1.0000
  H   H12       1.0  0.8833333568450473  0.8642926454238825  0.5838768085879591  1.0000
  H   H13       1.0  0.9119537110926047  0.7469551842630869  0.903057185578962  1.0000
  H   H14       1.0  0.8679619675806823  0.4223834215702704  0.35054637827271007  1.0000
  C   C22       1.0  0.9124705761631091  0.6224086670461275  0.3271192497764792  1.0000
  C   C23       1.0  0.8580041175510849  0.5395671435316183  0.26118680682818374  1.0000
  C   C24       1.0  0.8580040691636373  0.539567233650855  0.13030466330492962  1.0000
  C   C25       1.0  0.9124705154843716  0.6224087347932428  0.0626096808549148  1.0000
  C   C26       1.0  0.966892020497275  0.7051816163548399  0.12853782047229445  1.0000
  C   C27       1.0  0.9668920108047077  0.7051815935240875  0.2594301183112191  1.0000
  H   H15       1.0  0.9675505997440964  0.7061841838313099  0.6249377542558194  1.0000
  H   H16       1.0  0.8153107360284787  0.4746320422776893  0.3106885260237038  1.0000
  H   H17       1.0  0.8153107196430711  0.4746321093627086  0.08218449568658093  1.0000
  H   H18       1.0  0.009590976833140585  0.7701252719072702  0.07908089845294985  1.0000
  H   H19       1.0  0.00959093846107173  0.7701252194954049  0.3075052627759127  1.0000
  H   H20       1.0  0.9675508418430511  0.7061836931545549  0.7630087463001272  1.0000
  Zn  Zn1       1.0  0.8284264014240286  0.6183360418261481  0.6882369971580213  1.0000
  Zn  Zn2       1.0  0.9965073766284401  0.6264802797195295  0.7014907989413934  1.0000
  C   C28       1.0  0.9124998502711188  0.6166653271196199  0.9235732619743611  1.0000
  C   C29       1.0  0.9124357533975492  0.6281529023880945  0.46615480584254265  1.0000
  C   C30       1.0  0.9110447468671642  0.8857148353668041  0.6904635009292914  1.0000
  C   C31       1.0  0.9138908088005533  0.3591016592741443  0.6992646252514798  1.0000
  O   O2        1.0  0.9762099546517045  0.633165126555226  0.5178461431833936  1.0000
  O   O3        1.0  0.9762952259411136  0.6178333034813865  0.8819408905884183  1.0000
  O   O4        1.0  0.9751193516762422  0.8350941423224287  0.6937030448067305  1.0000
  O   O5        1.0  0.9773857715062382  0.41590429524815353  0.7060838905694102  1.0000
  O   O6        1.0  0.8475479491884345  0.8289120235198655  0.6836439010005491  1.0000
  O   O7        1.0  0.8487238140964606  0.6116529167679292  0.8718816838889134  1.0000
  O   O8        1.0  0.8486385431294239  0.6269846896056395  0.5077854307528311  1.0000
  O   O9        1.0  0.8498143600364992  0.40972384798693806  0.6960232720050628  1.0000
