data_image0
_chemical_formula_structural       NC8NC6H8C6ClH5C6BrH5Zn2C4O8
_chemical_formula_sum              "N2 C30 H18 Cl1 Br1 Zn2 O8"
_cell_length_a       17.457602349358154
_cell_length_b       10.30297070629231
_cell_length_c       10.302972455390005
_cell_angle_alpha    85.56070500176591
_cell_angle_beta     92.87591776842113
_cell_angle_gamma    91.68807172504815

_space_group_name_H-M_alt    "P 1"
_space_group_IT_number       1

loop_
  _space_group_symop_operation_xyz
  'x, y, z'

loop_
  _atom_site_type_symbol
  _atom_site_label
  _atom_site_symmetry_multiplicity
  _atom_site_fract_x
  _atom_site_fract_y
  _atom_site_fract_z
  _atom_site_occupancy
  N   N1        1.0  0.7224248934489289  0.4523638716921978  0.6269595799098677  1.0000
  C   C1        1.0  0.6613469586682459  0.40645358092232975  0.6163473606890952  1.0000
  C   C2        1.0  0.5853634247688914  0.34934689171020383  0.603155298786787  1.0000
  C   C3        1.0  0.5268348032732908  0.3894955549163035  0.6780282394626465  1.0000
  C   C4        1.0  0.4522893522170681  0.33450643972483873  0.6654504127299281  1.0000
  C   C5        1.0  0.3901698348166426  0.3768975144600115  0.7447436965735645  1.0000
  C   C6        1.0  0.3156231666493192  0.3953600415784744  0.6889986064747868  1.0000
  C   C7        1.0  0.2570945423166393  0.43532483876915884  0.7639794651690657  1.0000
  C   C8        1.0  0.181109718649218  0.4543930270459562  0.7060196459055192  1.0000
  N   N2        1.0  0.12003083692780271  0.46971747279338283  0.6594201022153301  1.0000
  C   C9        1.0  0.2726204234965868  0.4570701703366231  0.8952137636019626  1.0000
  C   C10       1.0  0.3463823876943708  0.4389965028472562  0.9513463238024953  1.0000
  C   C11       1.0  0.40489940715041367  0.3992117005705591  0.8768230352361002  1.0000
  C   C12       1.0  0.4375611683544298  0.23869146477227  0.5765671989102423  1.0000
  C   C13       1.0  0.4960780717432797  0.19882139027252577  0.5020941294368004  1.0000
  C   C14       1.0  0.5698387571903372  0.25392284342877414  0.515221724319334  1.0000
  H   H1        1.0  0.5391788505564378  0.4646653468301096  0.7446369446022345  1.0000
  H   H2        1.0  0.3032781565100882  0.3803948421956611  0.587007825341376  1.0000
  H   H3        1.0  0.2277594572921672  0.4879427930646858  0.9540301667265758  1.0000
  H   H4        1.0  0.3582136868070335  0.45551885802807446  0.05296396774817147  1.0000
  H   H5        1.0  0.4613850251537758  0.3842246558509821  0.9229142579371366  1.0000
  H   H6        1.0  0.3810765116068553  0.19337065088829797  0.5659188747488937  1.0000
  H   H7        1.0  0.4842478341742709  0.1247677002312757  0.434287498922183  1.0000
  H   H8        1.0  0.6146997673309577  0.22218080384971706  0.4569162772939579  1.0000
  C   C15       1.0  0.9212315187865074  0.07979336911598511  0.6431957391727401  1.0000
  C   C16       1.0  0.0004533119866767521  0.08010799562370186  0.6746693442648912  1.0000
  C   C17       1.0  0.03976105130957719  0.9633072609892035  0.6902856163182198  1.0000
  C   C18       1.0  0.0004533113741731487  0.8450000269269556  0.6746692831576779  1.0000
  C   C19       1.0  0.9212315269742484  0.8422783112861564  0.6431958141593179  1.0000
  C   C20       1.0  0.8820068008446366  0.9602842012340643  0.627612402724173  1.0000
  Cl  Cl1       1.0  0.13872794608514605  0.965203821400561  0.7296035583332443  1.0000
  H   H9        1.0  0.8913900568079737  0.40697797314422335  0.6313394565305002  1.0000
  H   H10       1.0  0.03196174445826738  0.17075839474087773  0.6871870504500786  1.0000
  H   H11       1.0  0.03196171411788873  0.7555572005883967  0.6871869546981093  1.0000
  H   H12       1.0  0.8209085498035629  0.9591132245199628  0.6033389705355325  1.0000
  H   H13       1.0  0.8913900530665148  0.5139500063051707  0.6313397013383322  1.0000
  C   C21       1.0  0.9212315071404532  0.4610358121884517  0.26195320078513684  1.0000
  C   C22       1.0  0.9435998581766506  0.3306549457841965  0.2727304043538792  1.0000
  C   C23       1.0  0.954695809932619  0.2659789984085861  0.16113864741007644  1.0000
  C   C24       1.0  0.9435999874858505  0.3306549007552795  0.037648024309347106  1.0000
  C   C25       1.0  0.9212315434396064  0.4610358173256348  0.02443828582309271  1.0000
  C   C26       1.0  0.9101553458753765  0.5255966078799303  0.1372569333651752  1.0000
  Br  Br1       1.0  0.9851204634579974  0.08863847686273751  0.17745188092917608  1.0000
  H   H14       1.0  0.9128125788263243  0.5101101883242483  0.5851983325415717  1.0000
  H   H15       1.0  0.9525041749672851  0.2787527037466675  0.36750407565046816  1.0000
  H   H16       1.0  0.9525044781245803  0.2787527604704816  0.9524231977708713  1.0000
  H   H17       1.0  0.8929039762686978  0.6261513299580403  0.12800708078280376  1.0000
  H   H18       1.0  0.9128115005739331  0.5101096537816927  0.6921646205264689  1.0000
  Zn  Zn1       1.0  0.8371653800084676  0.4573682645185928  0.6363344814452181  1.0000
  Zn  Zn2       1.0  0.005290336118664252  0.4647024355388618  0.6500558296840782  1.0000
  C   C27       1.0  0.9212298329889687  0.4558637234605756  0.8803121548040065  1.0000
  C   C28       1.0  0.921227719057517  0.46620869478346094  0.40607843358626505  1.0000
  C   C29       1.0  0.9212275892705551  0.6981522254667467  0.6380219836285861  1.0000
  C   C30       1.0  0.9212299054065883  0.22391863046905147  0.6483686692951773  1.0000
  O   O1        1.0  0.9850289923953445  0.4707223771802551  0.4596553584616063  1.0000
  O   O2        1.0  0.9850315111920473  0.45691552775654354  0.8371490420293701  1.0000
  O   O3        1.0  0.9850288392723177  0.6525665197629404  0.6414979443658153  1.0000
  O   O4        1.0  0.9850316069454097  0.27507139195846286  0.6553063541005912  1.0000
  O   O5        1.0  0.8574240518089261  0.6469993055976127  0.6310839523394536  1.0000
  O   O6        1.0  0.8574267237252021  0.45134987339807475  0.8267349807802651  1.0000
  O   O7        1.0  0.857424204979426  0.46515667758241896  0.4492397363333285  1.0000
  O   O8        1.0  0.8574268195263597  0.26950568307464295  0.6448908293076321  1.0000
