data_image0
_chemical_formula_structural       NC8NC6H8C6H6C7F3H5Zn2C4O8
_chemical_formula_sum              "N2 C31 H19 F3 Zn2 O8"
_cell_length_a       17.457602349358154
_cell_length_b       10.681118228259551
_cell_length_c       9.272291681409872
_cell_angle_alpha    86.06048178151603
_cell_angle_beta     93.27365386630078
_cell_angle_gamma    91.68806569353352

_space_group_name_H-M_alt    "P 1"
_space_group_IT_number       1

loop_
  _space_group_symop_operation_xyz
  'x, y, z'

loop_
  _atom_site_type_symbol
  _atom_site_label
  _atom_site_symmetry_multiplicity
  _atom_site_fract_x
  _atom_site_fract_y
  _atom_site_fract_z
  _atom_site_occupancy
  N   N1        1.0  0.7166069879324777  0.38911914839073547  0.47474415518817126  1.0000
  C   C1        1.0  0.6554840900955338  0.34474283239758163  0.462955462067397  1.0000
  C   C2        1.0  0.5794446625714711  0.2895442877245493  0.4483009241074727  1.0000
  C   C3        1.0  0.5212332886033569  0.3289164418585173  0.5314742921179272  1.0000
  C   C4        1.0  0.446634546416777  0.2757657924257433  0.5175020836091748  1.0000
  C   C5        1.0  0.3848510061878621  0.3173390420675193  0.6055858348017271  1.0000
  C   C6        1.0  0.3100681350193406  0.33466779491206666  0.5436608359403869  1.0000
  C   C7        1.0  0.2518572154932457  0.3738635220168953  0.6269540857711993  1.0000
  C   C8        1.0  0.1756268045857811  0.3917574178676311  0.5625688325445986  1.0000
  N   N2        1.0  0.114350471363565  0.40613795959455423  0.510803256687518  1.0000
  C   C9        1.0  0.26793915843406024  0.3959693310479422  0.7727370398323781  1.0000
  C   C10       1.0  0.341938967389088  0.3790190082140208  0.8350924638052841  1.0000
  C   C11       1.0  0.4001402208336505  0.34000084469865355  0.7523075104046808  1.0000
  C   C12       1.0  0.4315297544071823  0.1825774295251119  0.41876525942170284  1.0000
  C   C13       1.0  0.4897311045770029  0.14347744525330364  0.3360360924075547  1.0000
  C   C14       1.0  0.5635474106130937  0.1967411907220329  0.35061901645320503  1.0000
  H   H1        1.0  0.5338595642358896  0.40199867796723354  0.6054672513801711  1.0000
  H   H2        1.0  0.2972909726947114  0.31935395617717277  0.43036334032188983  1.0000
  H   H3        1.0  0.22332740591548092  0.4262555510656778  0.838073839699196  1.0000
  H   H4        1.0  0.35420083754326537  0.39583166031304384  0.94797545624384  1.0000
  H   H5        1.0  0.45682113647064804  0.32594138064161404  0.8035084127400769  1.0000
  H   H6        1.0  0.3749999815842542  0.1387694099739909  0.406936458781743  1.0000
  H   H7        1.0  0.4776135627672725  0.07146147938684155  0.2607124056150225  1.0000
  H   H8        1.0  0.6081613721329887  0.16562073506055475  0.2858498173281425  1.0000
  C   C15       1.0  0.9154824315405877  0.029878740828976902  0.49278024449090974  1.0000
  C   C16       1.0  0.9496109927414434  0.9576951260902948  0.6103679122343457  1.0000
  C   C17       1.0  0.9496109807561788  0.8268128869011934  0.6103678452346353  1.0000
  C   C18       1.0  0.9154824188927898  0.7653691447178315  0.49278030566636843  1.0000
  C   C19       1.0  0.881382108803686  0.837543286898181  0.3752898136896774  1.0000
  C   C20       1.0  0.8813821207222837  0.9684355459512877  0.3752898732827745  1.0000
  H   H9        1.0  0.8809690134478092  0.33401894391500586  0.37386785276479495  1.0000
  H   H10       1.0  0.9763626144740244  0.0022968386032626853  0.7025386351612066  1.0000
  H   H11       1.0  0.9763625200170426  0.773792805772496  0.7025386011315295  1.0000
  H   H12       1.0  0.8546269989685483  0.792986879213331  0.28310705655172863  1.0000
  H   H13       1.0  0.8546269788064018  0.021411317295509935  0.2831070430011262  1.0000
  H   H14       1.0  0.8809692945257936  0.47208960209119216  0.37386748825813343  1.0000
  C   C21       1.0  0.913867004072631  0.394340232809675  0.06927311205475983  1.0000
  C   C22       1.0  0.9654829984092855  0.3177342465515345  0.15417194534103018  1.0000
  C   C23       1.0  0.02126938104305731  0.2525282310191852  0.09043246858622989  1.0000
  C   C24       1.0  0.027672644940651026  0.2637201845016637  0.940120644383093  1.0000
  C   C25       1.0  0.974527428061719  0.33611192897232356  0.853912975215263  1.0000
  C   C26       1.0  0.9170978248494227  0.40090765430295483  0.916287396817641  1.0000
  C   C27       1.0  0.08659379542870527  0.19039809589452683  0.8708770510760324  1.0000
  F   F1        1.0  0.1508554051857378  0.17200267837098404  0.9636220984551573  1.0000
  F   F2        1.0  0.1095649393071112  0.25405131124816593  0.744887173896442  1.0000
  F   F3        1.0  0.054973615791602315  0.07492742793028717  0.8380513247145744  1.0000
  H   H15       1.0  0.8057906214321451  0.6427744552853547  0.1395656523336053  1.0000
  H   H16       1.0  0.9637116573305125  0.3101818217300718  0.27105804386568777  1.0000
  H   H17       1.0  0.059931152718724956  0.19406072730805923  0.15915085005564222  1.0000
  H   H18       1.0  0.9767155638904036  0.3395459446089222  0.7371235569617687  1.0000
  H   H19       1.0  0.7431713940703324  0.5134327134081913  0.7871770555850808  1.0000
  Zn  Zn1       1.0  0.83138719731323  0.39402711590846873  0.4851583599511098  1.0000
  Zn  Zn2       1.0  0.9995702927708469  0.40121981604610135  0.5004008592613607  1.0000
  C   C28       1.0  0.9164854272303296  0.39467724725791276  0.7561834363084747  1.0000
  C   C29       1.0  0.9144738999477996  0.4005713444417238  0.2293760909022271  1.0000
  C   C30       1.0  0.9154565421050415  0.6263010479480122  0.48703294736785097  1.0000
  C   C31       1.0  0.9155027279772813  0.1689460373101963  0.49852665153048026  1.0000
  O   O1        1.0  0.9785021879803291  0.4053866912301569  0.28889256221305604  1.0000
  O   O2        1.0  0.9801042155746776  0.395320045491254  0.7082352541335597  1.0000
  O   O3        1.0  0.9792725231577237  0.5823591686622218  0.4908942520514783  1.0000
  O   O4        1.0  0.9793338225953218  0.2183475737248468  0.5062334509601079  1.0000
  O   O5        1.0  0.8516236100960898  0.5768993557765121  0.4793257630432599  1.0000
  O   O6        1.0  0.8524553022161849  0.38986173659376133  0.6966666882286092  1.0000
  O   O7        1.0  0.8508532680590435  0.39992832525089916  0.27732226238962143  1.0000
  O   O8        1.0  0.8516849030833319  0.21288919962671993  0.49466325926260035  1.0000
