data_image0
_chemical_formula_structural       NC9NC5H8C7NH5C7NH5Zn2C4O8
_chemical_formula_sum              "N4 C32 H18 Zn2 O8"
_cell_length_a       17.807436237873137
_cell_length_b       10.302819778424748
_cell_length_c       10.302823150593486
_cell_angle_alpha    85.56070276465681
_cell_angle_beta     89.3921433004221
_cell_angle_gamma    88.39001009685678

_space_group_name_H-M_alt    "P 1"
_space_group_IT_number       1

loop_
  _space_group_symop_operation_xyz
  'x, y, z'

loop_
  _atom_site_type_symbol
  _atom_site_label
  _atom_site_symmetry_multiplicity
  _atom_site_fract_x
  _atom_site_fract_y
  _atom_site_fract_z
  _atom_site_occupancy
  N   N1        1.0  0.7074119289092874  0.3873407058334193  0.5575855461917596  1.0000
  C   C1        1.0  0.6468244125201947  0.3521618009962917  0.5465650874957324  1.0000
  C   C2        1.0  0.5714602012633152  0.3084031174826727  0.5328568334665793  1.0000
  C   C3        1.0  0.5533688677458154  0.23701055027302576  0.42788707770818024  1.0000
  C   C4        1.0  0.4801941074484454  0.19441277895585207  0.414494644157013  1.0000
  C   C5        1.0  0.4240619622551863  0.2228301607400056  0.5060395247495801  1.0000
  C   C6        1.0  0.3462960551193496  0.17767458170447048  0.4918888846751259  1.0000
  C   C7        1.0  0.2841196711182391  0.25940560505578314  0.517819657783259  1.0000
  C   C8        1.0  0.2108026059878608  0.21660485758950632  0.5044409009263668  1.0000
  C   C9        1.0  0.1475761315441698  0.30102640840315176  0.5307354635831592  1.0000
  N   N2        1.0  0.0967550343858454  0.36889549463037663  0.5518755656977838  1.0000
  C   C10       1.0  0.1990783800685586  0.09181518579595149  0.46510602906736276  1.0000
  C   C11       1.0  0.2603973942554111  0.010070314433668903  0.4391668689005295  1.0000
  C   C12       1.0  0.3335950275948692  0.05247664269954955  0.452343151051102  1.0000
  C   C13       1.0  0.4428447000227313  0.29471694188738495  0.6112284412548115  1.0000
  C   C14       1.0  0.5160723317949989  0.33712437797992867  0.6244652730392555  1.0000
  H   H1        1.0  0.595763839712479  0.21453265519498466  0.3561969307892061  1.0000
  H   H2        1.0  0.4672816196867842  0.14074743985401428  0.33160031619284447  1.0000
  H   H3        1.0  0.2926170989096222  0.35684051163442776  0.5466876254478821  1.0000
  H   H4        1.0  0.1426133686202985  0.05778960947982714  0.4545144750463548  1.0000
  H   H5        1.0  0.2512016224257427  0.9134552642678007  0.40909886893491576  1.0000
  H   H6        1.0  0.3802358861006477  0.9867518300674328  0.4333007339560442  1.0000
  H   H7        1.0  0.4011666076340215  0.31665594420847554  0.6842126780100819  1.0000
  H   H8        1.0  0.529513169541039  0.39200993622531954  0.7063183032884157  1.0000
  C   C15       1.0  0.9020870642866311  0.9968649139282814  0.5547361129410777  1.0000
  C   C16       1.0  0.8582358218393081  0.9890433746579677  0.669067544799919  1.0000
  C   C17       1.0  0.8364193966326362  0.8680495057710268  0.7259485137080481  1.0000
  C   C18       1.0  0.8582358824727955  0.7537423619747832  0.6690675481653501  1.0000
  C   C19       1.0  0.9020870766699055  0.7593609405238998  0.5547361513469995  1.0000
  C   C20       1.0  0.9237835988742643  0.8814378991245242  0.4981678103463245  1.0000
  C   C21       1.0  0.7914655173247012  0.8611603866615734  0.8431550306723585  1.0000
  N   N3        1.0  0.755337308301386  0.8556238194194487  0.9373506247679586  1.0000
  H   H9        1.0  0.9186968450186306  0.3271499535051363  0.5114295932662372  1.0000
  H   H10       1.0  0.8409413806645666  0.07681731893806476  0.7141583778110534  1.0000
  H   H11       1.0  0.8409414744277849  0.660667710371671  0.7141583455933813  1.0000
  H   H12       1.0  0.957600127508876  0.8866201496721199  0.4099995262369982  1.0000
  H   H13       1.0  0.9186969139387311  0.4341668696531032  0.5114296909290346  1.0000
  C   C22       1.0  0.9020870789398288  0.3781129674224377  0.1734880600932729  1.0000
  C   C23       1.0  0.8233609692134176  0.3912526507832832  0.1728131673567761  1.0000
  C   C24       1.0  0.7841939875379443  0.3977896605374791  0.055374894109747164  1.0000
  C   C25       1.0  0.8233609546050454  0.3912525666999551  0.9375121737224643  1.0000
  C   C26       1.0  0.9020870784912527  0.37811296069885625  0.935984226714778  1.0000
  C   C27       1.0  0.9410387974550826  0.37161174254575946  0.054525083153787346  1.0000
  C   C28       1.0  0.7034882099371105  0.41125955063291775  0.05581212531668789  1.0000
  N   N4        1.0  0.6386271345306319  0.42208509993167986  0.05616348166425578  1.0000
  H   H14       1.0  0.9319068925161803  0.3731362526554969  0.5010659218495532  1.0000
  H   H15       1.0  0.7923123937256057  0.39643477340491895  0.26340563668587724  1.0000
  H   H16       1.0  0.7923124235211961  0.3964346764020661  0.8472560997511627  1.0000
  H   H17       1.0  0.0017495375293041793  0.3614789141614698  0.05419619313556945  1.0000
  H   H18       1.0  0.931906867345332  0.3731360454369146  0.6080832219110821  1.0000
  Zn  Zn1       1.0  0.8197679376826649  0.3820143520853023  0.5559452775758931  1.0000
  Zn  Zn2       1.0  0.984399007414874  0.3742112654208529  0.553526507542017  1.0000
  C   C29       1.0  0.9020853859121531  0.37294091303571153  0.7918561398397648  1.0000
  C   C30       1.0  0.9020833569515653  0.3832862573826228  0.317615746291424  1.0000
  C   C31       1.0  0.9020832053816443  0.6152331819462964  0.5495626787631223  1.0000
  C   C32       1.0  0.9020854813049756  0.1409924313062394  0.5599092774100118  1.0000
  O   O1        1.0  0.9645587407995733  0.38205556600907475  0.36506840377949024  1.0000
  O   O2        1.0  0.9645611746872387  0.36824826275730427  0.7425673181348684  1.0000
  O   O3        1.0  0.9645585716663448  0.563902374025306  0.546913646423187  1.0000
  O   O4        1.0  0.9645612876430376  0.18640146669114155  0.5607219789727196  1.0000
  O   O5        1.0  0.8396056012739969  0.5698241534792376  0.5487498069637693  1.0000
  O   O6        1.0  0.8396082042914852  0.37417160204125777  0.7444034094520837  1.0000
  O   O7        1.0  0.8396057704538253  0.3879788600485161  0.36690293419001163  1.0000
  O   O8        1.0  0.8396083172942147  0.19232475144473882  0.5625566067202716  1.0000
