data_image0
_chemical_formula_structural       NC8NC6H8C6ClH5C9H8Zn2C4O8
_chemical_formula_sum              "N2 C33 H21 Cl1 Zn2 O8"
_cell_length_a       17.457602349358154
_cell_length_b       10.30297070629231
_cell_length_c       9.275155815604963
_cell_angle_alpha    86.05280978821669
_cell_angle_beta     93.22066324705655
_cell_angle_gamma    91.68807172504815

_space_group_name_H-M_alt    "P 1"
_space_group_IT_number       1

loop_
  _space_group_symop_operation_xyz
  'x, y, z'

loop_
  _atom_site_type_symbol
  _atom_site_label
  _atom_site_symmetry_multiplicity
  _atom_site_fract_x
  _atom_site_fract_y
  _atom_site_fract_z
  _atom_site_occupancy
  N   N1        1.0  0.7173607902103919  0.4403206565916875  0.4752788782268864  1.0000
  C   C1        1.0  0.656243715013347  0.394317283901652  0.46349431998807145  1.0000
  C   C2        1.0  0.5802115256174573  0.33709488444765423  0.44884492210591187  1.0000
  C   C3        1.0  0.5219590535314498  0.37790027335284715  0.531989127059656  1.0000
  C   C4        1.0  0.4473672124256998  0.3228008355003573  0.5180218193207335  1.0000
  C   C5        1.0  0.38554014772341155  0.36588740765817107  0.6060746857346786  1.0000
  C   C6        1.0  0.3107878782590169  0.38386098332186736  0.5441713979180152  1.0000
  C   C7        1.0  0.2525358013635327  0.4244834527824015  0.6274354426664916  1.0000
  C   C8        1.0  0.1763372079453139  0.4430432637671944  0.5630727630598129  1.0000
  N   N2        1.0  0.1150864559011733  0.4579589754962812  0.5113253363345631  1.0000
  C   C9        1.0  0.2685457061934595  0.4473798669119424  0.7731672825992002  1.0000
  C   C10       1.0  0.3425147007712234  0.4297985494559362  0.8355008446012098  1.0000
  C   C11       1.0  0.40075686041873204  0.3893600883494841  0.7527449180613948  1.0000
  C   C12       1.0  0.4323112058971226  0.22620624791061328  0.4193196168953637  1.0000
  C   C13       1.0  0.49055343469752927  0.18568295506293064  0.3366194571855865  1.0000
  C   C14       1.0  0.564362537871251  0.24089955300778798  0.3511972663327969  1.0000
  H   H1        1.0  0.5345487697362663  0.4536543036851477  0.6059561408010437  1.0000
  H   H2        1.0  0.29806670159367255  0.36800120217912413  0.4309136263732831  1.0000
  H   H3        1.0  0.22390166902709613  0.4787683802022227  0.8384811734640691  1.0000
  H   H4        1.0  0.3547207901903244  0.44721221353497675  0.9483442582412991  1.0000
  H   H5        1.0  0.45741247393477774  0.3747773190620882  0.8039278692348246  1.0000
  H   H6        1.0  0.3757872755694835  0.18079203542274103  0.40749496517882533  1.0000
  H   H7        1.0  0.4784731099700077  0.11103451935754705  0.26132218244467587  1.0000
  H   H8        1.0  0.6090085035027767  0.20864610456575483  0.28645077723222223  1.0000
  C   C15       1.0  0.9162272984075728  0.06789256465069538  0.49330865695907233  1.0000
  C   C16       1.0  0.9955651738316472  0.06848325251142695  0.5282591724429493  1.0000
  C   C17       1.0  0.03493050972105949  0.951819491356117  0.5456005846072776  1.0000
  C   C18       1.0  0.9955651729937656  0.8333752832786969  0.5282591045851808  1.0000
  C   C19       1.0  0.9162273068718821  0.8303775074785894  0.493308740229468  1.0000
  C   C20       1.0  0.8769451053736202  0.948246712174434  0.47600381881798803  1.0000
  Cl  Cl1       1.0  0.13404241852139953  0.9540609173854621  0.5892620062069587  1.0000
  H   H9        1.0  0.886342107607624  0.3949731748269949  0.48014260277317433  1.0000
  H   H10       1.0  0.02711977461372861  0.15924344696015091  0.5421597180768882  1.0000
  H   H11       1.0  0.027119743920194228  0.7440422519678103  0.5421596117471339  1.0000
  H   H12       1.0  0.8157573280777051  0.9468628282794529  0.44904888419667666  1.0000
  H   H13       1.0  0.8863421047690752  0.5019452101352015  0.4801428746250924  1.0000
  C   C21       1.0  0.914821172604158  0.4457910523464046  0.06994999810777847  1.0000
  C   C22       1.0  0.8547845690472137  0.5063885656871436  0.13232366576873722  1.0000
  C   C23       1.0  0.7998883413005639  0.5758423854452297  0.046063573252177026  1.0000
  C   C24       1.0  0.8040106664479022  0.5861588968780207  0.8958553884921177  1.0000
  C   C25       1.0  0.8625029042094027  0.5247953575587025  0.8316333878870146  1.0000
  C   C26       1.0  0.9176334330283821  0.4524789437649517  0.9166673031538792  1.0000
  C   C27       1.0  0.7475631338691451  0.6585770461704135  0.8071420806619605  1.0000
  C   C28       1.0  0.7002984942272786  0.7192174656513113  0.7328303736268871  1.0000
  C   C29       1.0  0.64295135306409  0.792794384073011  0.6426542512380484  1.0000
  H   H14       1.0  0.09295268011589419  0.348944309285079  0.19905216204534804  1.0000
  H   H15       1.0  0.851336674257345  0.5026368287452059  0.24880271599612946  1.0000
  H   H16       1.0  0.7546000607101453  0.6226307845886132  0.09677206187242904  1.0000
  H   H17       1.0  0.863920882552211  0.5309631166126911  0.7146156056612241  1.0000
  H   H18       1.0  0.03648973946031542  0.3825661321009628  0.6538570344479182  1.0000
  H   H19       1.0  0.6585464573455166  0.7972161667231841  0.5280686706106845  1.0000
  H   H20       1.0  0.5857934905370039  0.7440283001909576  0.6525002297788802  1.0000
  H   H21       1.0  0.6410091157071471  0.8929558427557105  0.6789829538909551  1.0000
  Zn  Zn1       1.0  0.8321358536611361  0.4454072785746934  0.48568943146067456  1.0000
  Zn  Zn2       1.0  0.0003114174031524364  0.4528618023142934  0.5009265862981271  1.0000
  C   C30       1.0  0.9171001549692674  0.44604271501259674  0.7566194830222936  1.0000
  C   C31       1.0  0.91534895303698  0.4522280864948842  0.22999684262669096  1.0000
  C   C32       1.0  0.9162042868370625  0.6862060409456452  0.48756335314890187  1.0000
  C   C33       1.0  0.9162447640378578  0.21206319881963331  0.49905304416263263  1.0000
  O   O1        1.0  0.979347830957165  0.45721170293095126  0.2894924465446891  1.0000
  O   O2        1.0  0.9807426372331814  0.4467159269204988  0.7086881120546109  1.0000
  O   O3        1.0  0.9800183570178733  0.6406508235961705  0.4914233056142192  1.0000
  O   O4        1.0  0.9800720534265175  0.263276812145006  0.5067571396897872  1.0000
  O   O5        1.0  0.8523751602476799  0.6349922662014715  0.47985887286173834  1.0000
  O   O6        1.0  0.8530994402042238  0.4410589287254918  0.6971236024323038  1.0000
  O   O7        1.0  0.8517046282222368  0.4515546458057904  0.2779262036118333  1.0000
  O   O8        1.0  0.8524288510474536  0.25761974658760867  0.4951910048449486  1.0000
