data_image0
_chemical_formula_structural       NC9NC5H8C7H8C6NCOH7Zn2C4O8
_chemical_formula_sum              "N3 C32 H23 O9 Zn2"
_cell_length_a       17.807436237873137
_cell_length_b       9.274341958901593
_cell_length_c       10.29962270195845
_cell_angle_alpha    85.54764645947503
_cell_angle_beta     89.41121966804023
_cell_angle_gamma    87.76967926577302

_space_group_name_H-M_alt    "P 1"
_space_group_IT_number       1

loop_
  _space_group_symop_operation_xyz
  'x, y, z'

loop_
  _atom_site_type_symbol
  _atom_site_label
  _atom_site_symmetry_multiplicity
  _atom_site_fract_x
  _atom_site_fract_y
  _atom_site_fract_z
  _atom_site_occupancy
  N   N1        1.0  0.698450334405618  0.5412880260990831  0.5565165168886033  1.0000
  C   C1        1.0  0.6380812282428298  0.5021883751557221  0.5455097327244924  1.0000
  C   C2        1.0  0.5629886952517174  0.4535527152549863  0.5318184883023138  1.0000
  C   C3        1.0  0.5453252823637116  0.3741736663822546  0.42685317041218385  1.0000
  C   C4        1.0  0.47241498386477476  0.32682828704267064  0.41347728169849685  1.0000
  C   C5        1.0  0.4161217389525402  0.35844250985996484  0.5050344401789653  1.0000
  C   C6        1.0  0.3386361819004334  0.30825426644430975  0.4909013513546645  1.0000
  C   C7        1.0  0.2759524268633729  0.39909446257435244  0.5168004467553222  1.0000
  C   C8        1.0  0.2029010980535578  0.351523512809766  0.5034383354413698  1.0000
  C   C9        1.0  0.1391504594083753  0.44535392802184615  0.5297000393379439  1.0000
  N   N2        1.0  0.0879079706986143  0.5207870906742991  0.550813725591105  1.0000
  C   C10       1.0  0.1919515909703461  0.21282574236907315  0.4641519027322143  1.0000
  C   C11       1.0  0.2537780614181885  0.12197015339073958  0.43824442451305345  1.0000
  C   C12       1.0  0.3267123925712933  0.1691026969549585  0.4514041921647385  1.0000
  C   C13       1.0  0.4344734996709656  0.43837087672146846  0.610218744866345  1.0000
  C   C14       1.0  0.5074378335471881  0.48550467320069246  0.6234390787121771  1.0000
  H   H1        1.0  0.5878478165295304  0.34916735754123973  0.35515351529061645  1.0000
  H   H2        1.0  0.4598234212703923  0.2671581278592119  0.33058516377620784  1.0000
  H   H3        1.0  0.2838446174199028  0.5073880533578901  0.5456300729188892  1.0000
  H   H4        1.0  0.1356978417839577  0.17500798456111033  0.4535735940076264  1.0000
  H   H5        1.0  0.24518216643160154  0.01458727017575323  0.40821403618877783  1.0000
  H   H6        1.0  0.3737615943154634  0.09605330274500301  0.4323877598663852  1.0000
  H   H7        1.0  0.3926714622166345  0.46277875767487653  0.6832131121741862  1.0000
  H   H8        1.0  0.5205499062394876  0.5465305357234866  0.705289022835144  1.0000
  C   C15       1.0  0.8955719248638595  0.10733597701292741  0.5538525861827619  1.0000
  C   C16       1.0  0.9044330220079184  0.19017056157667  0.4348154402528548  1.0000
  C   C17       1.0  0.9058179828256765  0.12510007240761012  0.31714839267555095  1.0000
  C   C18       1.0  0.8975503651887221  0.9759044266647581  0.3157010731358951  1.0000
  C   C19       1.0  0.8910300344631947  0.8913383931959443  0.433743010075061  1.0000
  C   C20       1.0  0.8907936043139595  0.9547276821817078  0.5534888598679297  1.0000
  C   C21       1.0  0.900701929591737  0.9057004660269563  0.18922862027001686  1.0000
  H   H9        1.0  0.8330978463563055  0.18889326437861098  0.8556453202579339  1.0000
  H   H10       1.0  0.9086915975469241  0.3065533028748324  0.43252090498136364  1.0000
  H   H11       1.0  0.9125461454824552  0.19158893554030443  0.22688987029038055  1.0000
  H   H12       1.0  0.887852574510591  0.7750011035827644  0.4321315950856932  1.0000
  H   H13       1.0  0.8517216868270375  0.6592659638291775  0.7583295134399317  1.0000
  H   H14       1.0  0.9597952536471664  0.8730349935708204  0.16709054239650412  1.0000
  H   H15       1.0  0.878773001809195  0.9816421846442999  0.10850606992429546  1.0000
  H   H16       1.0  0.8660323915760784  0.8083553578704115  0.1949308235535685  1.0000
  C   C22       1.0  0.893112056885663  0.5308949466791859  0.17231503022387384  1.0000
  C   C23       1.0  0.8143068313584588  0.5461706098023864  0.171369723732403  1.0000
  C   C24       1.0  0.7747296801906641  0.556221742532043  0.05392790222074262  1.0000
  C   C25       1.0  0.8144712506355378  0.5464711146388059  0.9361949653597335  1.0000
  C   C26       1.0  0.8932534888433825  0.5311687235923659  0.9350263411423851  1.0000
  C   C27       1.0  0.9321436702023982  0.5240454450095142  0.053596057261088736  1.0000
  N   N3        1.0  0.6940034090245961  0.5696182345059679  0.05698791293786787  1.0000
  C   C28       1.0  0.6494724830459501  0.6506905802444902  0.9595261399488666  1.0000
  O   O1        1.0  0.6792743477072416  0.7324997179306079  0.8719371187650227  1.0000
  H   H17       1.0  0.04171375992443016  0.5005389390425021  0.3814586835679836  1.0000
  H   H18       1.0  0.7832568307623229  0.551558442363498  0.26197812264417686  1.0000
  H   H19       1.0  0.7839724350908035  0.5478042819524103  0.8457894661084167  1.0000
  H   H20       1.0  0.9928946631650453  0.5122882096702299  0.05344735326188288  1.0000
  H   H21       1.0  0.9234307563103097  0.523110701862054  0.6072850424099312  1.0000
  H   H22       1.0  0.6657215982819994  0.5262588031097941  0.13952231455138953  1.0000
  H   H23       1.0  0.5889186921410343  0.6448819594539434  0.9633122567954855  1.0000
  Zn  Zn1       1.0  0.810839417400734  0.5353680517382684  0.5548783266915167  1.0000
  Zn  Zn2       1.0  0.9755189378058419  0.526695307613051  0.5524625970782711  1.0000
  C   C29       1.0  0.8932574902330501  0.525369101495355  0.7908600989830579  1.0000
  C   C30       1.0  0.8931026530268538  0.536695983704305  0.31648092508757975  1.0000
  C   C31       1.0  0.8916919951547072  0.7945509705541705  0.5483826514091248  1.0000
  C   C32       1.0  0.8946681016993384  0.26751238413136247  0.5589584434661925  1.0000
  O   O2        1.0  0.9555945522596176  0.5353453088791698  0.3639475622790904  1.0000
  O   O3        1.0  0.95575354263144  0.5201362755958077  0.7415596055454596  1.0000
  O   O4        1.0  0.95448854334493  0.7375040839826548  0.5457573627758308  1.0000
  O   O5        1.0  0.9568594952759055  0.31797751373824124  0.5597497084973251  1.0000
  O   O6        1.0  0.829498803733622  0.7440858485742288  0.5475912160900005  1.0000
  O   O7        1.0  0.8307637932289416  0.5267197736626585  0.7433933888724882  1.0000
  O   O8        1.0  0.8306048029010901  0.5419287561034893  0.3657797842804795  1.0000
  O   O9        1.0  0.8318697459905515  0.32456095067779245  0.5615820278676475  1.0000
