data_image0
_chemical_formula_structural       NC9NC5H8C6FH5C6NCH9Zn2C4O8
_chemical_formula_sum              "N3 C31 H22 F1 Zn2 O8"
_cell_length_a       17.807436237873137
_cell_length_b       9.275642734913903
_cell_length_c       9.273390368590327
_cell_angle_alpha    86.08531418249576
_cell_angle_beta     89.39974432744097
_cell_angle_gamma    88.99238798493903

_space_group_name_H-M_alt    "P 1"
_space_group_IT_number       1

loop_
  _space_group_symop_operation_xyz
  'x, y, z'

loop_
  _atom_site_type_symbol
  _atom_site_label
  _atom_site_symmetry_multiplicity
  _atom_site_fract_x
  _atom_site_fract_y
  _atom_site_fract_z
  _atom_site_occupancy
  N   N1        1.0  0.7159017668641592  0.5237447273296472  0.39634595256424876  1.0000
  C   C1        1.0  0.6551002385827089  0.48454545376717717  0.3841717642994089  1.0000
  C   C2        1.0  0.5794698201004128  0.43578587410427105  0.36902839586433567  1.0000
  C   C3        1.0  0.56094636429033  0.3552596996673434  0.25261901808751674  1.0000
  C   C4        1.0  0.48751246048323976  0.3077931406759933  0.2378242723944599  1.0000
  C   C5        1.0  0.4315509957819402  0.34043322200633885  0.33940353428637793  1.0000
  C   C6        1.0  0.3535103834932423  0.2901170482769224  0.32377144042965944  1.0000
  C   C7        1.0  0.2918312038590908  0.3811924377545399  0.3524186835718004  1.0000
  C   C8        1.0  0.2182537583532476  0.33350061737523684  0.33763946761932484  1.0000
  C   C9        1.0  0.1555408689172241  0.42756836492408823  0.3666859734841921  1.0000
  N   N2        1.0  0.1051326585440999  0.5031923388578736  0.39003856792181146  1.0000
  C   C10       1.0  0.2057703772689857  0.19444668694782252  0.2941853159083563  1.0000
  C   C11       1.0  0.2665921029517619  0.10335581908877356  0.2655287855934625  1.0000
  C   C12       1.0  0.3400477193043614  0.15060721357087692  0.28008389955807855  1.0000
  C   C13       1.0  0.4507688606961759  0.4215108499887379  0.4560553674785508  1.0000
  C   C14       1.0  0.5242544806202858  0.4687641892060226  0.4706776982296197  1.0000
  H   H1        1.0  0.6032063103404708  0.32945019414173093  0.17307118137348398  1.0000
  H   H2        1.0  0.4742752552143584  0.2472150600046017  0.14589147238912803  1.0000
  H   H3        1.0  0.3009214237593203  0.48974301659946495  0.3842998078496387  1.0000
  H   H4        1.0  0.1490983684384586  0.15653334595017676  0.282485302830195  1.0000
  H   H5        1.0  0.2568085653719325  0.9957016038217111  0.2323140550520051  1.0000
  H   H6        1.0  0.3862886978595964  0.07738939247128607  0.25905637062219067  1.0000
  H   H7        1.0  0.4092224769552749  0.44673713637231427  0.5370407477875463  1.0000
  H   H8        1.0  0.5380274969647594  0.5306851440931522  0.5614524260727933  1.0000
  C   C15       1.0  0.9081982545431597  0.09005361526685718  0.3938495863342868  1.0000
  C   C16       1.0  0.8936639692704342  0.1727502887385306  0.2638817203570041  1.0000
  C   C17       1.0  0.8862142968969257  0.10648772420758346  0.1342436554250095  1.0000
  C   C18       1.0  0.8932427883286338  0.9568061951114982  0.13228109420419143  1.0000
  C   C19       1.0  0.9064196830782405  0.8725702817540859  0.260254777582547  1.0000
  C   C20       1.0  0.9128433000430279  0.936872138822864  0.3925473267228363  1.0000
  F   F1        1.0  0.8730341560983298  0.18795832911780308  0.009789424216473552  1.0000
  H   H9        1.0  0.9858009113787096  0.1685228675227637  0.7145232089441005  1.0000
  H   H10       1.0  0.8898292120361185  0.28955855085303006  0.2620992976589047  1.0000
  H   H11       1.0  0.8877614208346066  0.9055631211909787  0.0315705513247897  1.0000
  H   H12       1.0  0.9098115209799383  0.7561891658168657  0.2562386980903497  1.0000
  H   H13       1.0  0.9620903322099963  0.639170275978716  0.6103265368311794  1.0000
  C   C21       1.0  0.9105309160180437  0.5089647304958513  0.9699590446183435  1.0000
  C   C22       1.0  0.9794956918980258  0.5024574948865712  0.04244813623075294  1.0000
  C   C23       1.0  0.047330814983290725  0.5094173877474717  0.9659188384815285  1.0000
  C   C24       1.0  0.047925366365533906  0.5231842033796459  0.8142612286121738  1.0000
  C   C25       1.0  0.979405033085459  0.527235643264637  0.7409588562475129  1.0000
  C   C26       1.0  0.9105106394421923  0.5179610552121559  0.8164378780257069  1.0000
  N   N3        1.0  0.11703899466625423  0.5317372369297924  0.7323353246643478  1.0000
  C   C27       1.0  0.19119443621270538  0.5279916343295639  0.7981216184292572  1.0000
  H   H14       1.0  0.7916063575107098  0.44596361783129357  0.25782651595267514  1.0000
  H   H15       1.0  0.9810168714169769  0.4954152088709891  0.15948169239541188  1.0000
  H   H16       1.0  0.09907071438123172  0.5053582441881965  0.02620334193695628  1.0000
  H   H17       1.0  0.980003061510522  0.53431083236852  0.6238112385193713  1.0000
  H   H18       1.0  0.7348653979868754  0.41518544114137  0.7239553564056456  1.0000
  H   H19       1.0  0.1146545211615011  0.5414217666975545  0.6194842849239492  1.0000
  H   H20       1.0  0.19657608951211536  0.6202281108084762  0.8673689288408593  1.0000
  H   H21       1.0  0.19979035555766256  0.42444109494697235  0.8636856002183819  1.0000
  H   H22       1.0  0.23526834883917336  0.5365678652181531  0.7125010586913838  1.0000
  Zn  Zn1       1.0  0.8282253718565131  0.5178099932270075  0.3945341189224012  1.0000
  Zn  Zn2       1.0  0.9928089706004637  0.5091154455895825  0.391862268435478  1.0000
  C   C28       1.0  0.9104812730726851  0.510516548271285  0.6564441212421988  1.0000
  C   C29       1.0  0.9105548766079078  0.5164106163818067  0.12995237560246342  1.0000
  C   C30       1.0  0.9119615454961074  0.7767445808764184  0.38705020584700356  1.0000
  C   C31       1.0  0.9090745385194894  0.2501808552343565  0.3993463714136922  1.0000
  O   O1        1.0  0.973021501484962  0.5156036977988123  0.18263365537592113  1.0000
  O   O2        1.0  0.9729297854804595  0.5047234142293653  0.6017345555536993  1.0000
  O   O3        1.0  0.9741242821749967  0.719705977877729  0.3841970742286833  1.0000
  O   O4        1.0  0.97182694868836  0.30062114628326775  0.40017102953136097  1.0000
  O   O5        1.0  0.8492073376043209  0.7263042955018335  0.3862253587307063  1.0000
  O   O6        1.0  0.8480128504104832  0.5113234633642982  0.6037627605438771  1.0000
  O   O7        1.0  0.8481045662308733  0.5222036782693509  0.1846601276156321  1.0000
  O   O8        1.0  0.8469100133720396  0.307221117589499  0.40219760984483655  1.0000
