data_image0
_chemical_formula_structural       NC8NC6H8C6BrH5C7F3H5Zn2C4O8
_chemical_formula_sum              "N2 C31 H18 Br1 F3 Zn2 O8"
_cell_length_a       17.457602349358154
_cell_length_b       10.302969083221269
_cell_length_c       9.272291681409872
_cell_angle_alpha    86.06047183095717
_cell_angle_beta     93.27365386630078
_cell_angle_gamma    91.68807063265206

_space_group_name_H-M_alt    "P 1"
_space_group_IT_number       1

loop_
  _space_group_symop_operation_xyz
  'x, y, z'

loop_
  _atom_site_type_symbol
  _atom_site_label
  _atom_site_symmetry_multiplicity
  _atom_site_fract_x
  _atom_site_fract_y
  _atom_site_fract_z
  _atom_site_occupancy
  N   N1        1.0  0.7166070532724648  0.4401039102391868  0.47474388343471263  1.0000
  C   C1        1.0  0.6554841533481924  0.39409885282004087  0.46295519899527937  1.0000
  C   C2        1.0  0.5794447232277561  0.3368743590714407  0.44830067183384936  1.0000
  C   C3        1.0  0.5212333511115899  0.3776915871605886  0.5314740321419269  1.0000
  C   C4        1.0  0.4466346064249632  0.3225901524358834  0.5175018340310398  1.0000
  C   C5        1.0  0.3848510681515288  0.36568926271726543  0.6055855770906144  1.0000
  C   C6        1.0  0.3100681977980997  0.3836540318012649  0.5436605748392496  1.0000
  C   C7        1.0  0.2518572801156541  0.4242883574699612  0.6269538170021993  1.0000
  C   C8        1.0  0.1756268700498645  0.442839011972068  0.5625685602750148  1.0000
  N   N2        1.0  0.1143505375040657  0.4577473619118779  0.5108029816046684  1.0000
  C   C9        1.0  0.2679392240962594  0.4472055147645613  0.7727367667388176  1.0000
  C   C10       1.0  0.3419390322539949  0.42963306518654965  0.8350921940277161  1.0000
  C   C11       1.0  0.4001402838632603  0.3891828202137353  0.7523072482602384  1.0000
  C   C12       1.0  0.4315298100320681  0.22598150230140313  0.41876502807401206  1.0000
  C   C13       1.0  0.489731158362743  0.18544643350953405  0.33603586870899593  1.0000
  C   C14       1.0  0.5635474669042003  0.24066511522763046  0.35061878233465693  1.0000
  H   H1        1.0  0.533859630181691  0.45345615646417303  0.6054669771070889  1.0000
  H   H2        1.0  0.2972910347531537  0.36777813010597726  0.4303630822165998  1.0000
  H   H3        1.0  0.2233274730022526  0.4786033282094575  0.8380735606807408  1.0000
  H   H4        1.0  0.3542009031989887  0.4470627911084355  0.9479751831772119  1.0000
  H   H5        1.0  0.45682119883894273  0.374607332439439  0.8035081533460879  1.0000
  H   H6        1.0  0.3750000351485425  0.1805655994765878  0.40693623600421813  1.0000
  H   H7        1.0  0.47761361316559814  0.11078726970483732  0.2607121960049521  1.0000
  H   H8        1.0  0.6081614269602826  0.20840244723515555  0.28584958929769133  1.0000
  C   C15       1.0  0.9154824799829867  0.06767832223621428  0.49278004301567235  1.0000
  C   C16       1.0  0.9951441633478979  0.06848947751045653  0.5242988445630212  1.0000
  C   C17       1.0  0.03466064531118129  0.951954002031058  0.5399336795733594  1.0000
  C   C18       1.0  0.9951442225637603  0.8334071183858041  0.5242985763743835  1.0000
  C   C19       1.0  0.9154824914181287  0.8301633393486864  0.49277994847314677  1.0000
  C   C20       1.0  0.8760363343365883  0.9479169110712944  0.4771728157414725  1.0000
  Br  Br1       1.0  0.14301424899292758  0.9547116712301598  0.5828050659301227  1.0000
  H   H9        1.0  0.8854985894956894  0.39467467239764575  0.48091601730929745  1.0000
  H   H10       1.0  0.026855973774385422  0.15929587772374254  0.5368460422021253  1.0000
  H   H11       1.0  0.02685606160572296  0.7442149423710203  0.5368454007476686  1.0000
  H   H12       1.0  0.8145981811901741  0.9463532237738457  0.45286449658801353  1.0000
  H   H13       1.0  0.8854983778305897  0.501640687556677  0.48091812848176274  1.0000
  C   C21       1.0  0.9138670696582023  0.44551662382542867  0.06927283927989958  1.0000
  C   C22       1.0  0.9654830603915414  0.3660989723691941  0.15417168755260424  1.0000
  C   C23       1.0  0.021269439958218284  0.2984997041220905  0.09043222355406  1.0000
  C   C24       1.0  0.027672704382248003  0.31010243524274617  0.9401203971614409  1.0000
  C   C25       1.0  0.9745274909084057  0.3851511698325807  0.85391271383161  1.0000
  C   C26       1.0  0.9170978907439058  0.45232508901980584  0.9162871227579954  1.0000
  C   C27       1.0  0.08659385142145193  0.23408921014800366  0.8708768181983846  1.0000
  F   F1        1.0  0.15085546031321906  0.21501862665138582  0.9636218691762064  1.0000
  F   F2        1.0  0.10956499829391309  0.30007868587891395  0.7448869285663116  1.0000
  F   F3        1.0  0.05497366635295586  0.11438042876242172  0.8380511144264604  1.0000
  H   H14       1.0  0.805790698703315  0.7030691135732872  0.13956533095754442  1.0000
  H   H15       1.0  0.9637117189575249  0.3582693513249686  0.27105778755474286  1.0000
  H   H16       1.0  0.0599312088837507  0.2378862709159757  0.15915061646147355  1.0000
  H   H17       1.0  0.9767156268986162  0.38871122395163704  0.7371232949063189  1.0000
  H   H18       1.0  0.7431714652576559  0.5689801490303712  0.7871767595121515  1.0000
  Zn  Zn1       1.0  0.831387262884073  0.4451920146122368  0.48515808723750475  1.0000
  Zn  Zn2       1.0  0.9995703586800128  0.45264870801782586  0.5004005851406474  1.0000
  C   C28       1.0  0.916485492831753  0.4458660076959746  0.7561831634676845  1.0000
  C   C29       1.0  0.9144739658264637  0.4519764355966842  0.22937581690837439  1.0000
  C   C30       1.0  0.915456618601352  0.6859910836944585  0.4870326292144831  1.0000
  C   C31       1.0  0.9155027829609872  0.21184979786593705  0.4985264228495001  1.0000
  O   O1        1.0  0.9785022540854926  0.45696851978702435  0.2888922872771771  1.0000
  O   O2        1.0  0.9801042812063363  0.4465323985166625  0.708234981167019  1.0000
  O   O3        1.0  0.9792725975871402  0.6404364080886731  0.49089394249446316  1.0000
  O   O4        1.0  0.9793338799027276  0.26306451608861803  0.5062332126147018  1.0000
  O   O5        1.0  0.8516236842686932  0.6347762039981935  0.47932545455434816  1.0000
  O   O6        1.0  0.8524553675911012  0.4408737536151952  0.6966664163298775  1.0000
  O   O7        1.0  0.8508533339074618  0.4513098157087223  0.27732198852156276  1.0000
  O   O8        1.0  0.8516849601339923  0.25740580359346077  0.49466302198501677  1.0000
