data_image0
_chemical_formula_structural       NC9NC5H8C6BrH5C6H6Zn2C4O8
_chemical_formula_sum              "N2 C30 H19 Br1 Zn2 O8"
_cell_length_a       17.807436237873137
_cell_length_b       10.302969083221269
_cell_length_c       10.681121600428288
_cell_angle_alpha    85.56069838107055
_cell_angle_beta     89.39214167786866
_cell_angle_gamma    88.39001038669201

_space_group_name_H-M_alt    "P 1"
_space_group_IT_number       1

loop_
  _space_group_symop_operation_xyz
  'x, y, z'

loop_
  _atom_site_type_symbol
  _atom_site_label
  _atom_site_symmetry_multiplicity
  _atom_site_fract_x
  _atom_site_fract_y
  _atom_site_fract_z
  _atom_site_occupancy
  N   N1        1.0  0.707411959829703  0.3873204867312048  0.6086720215992278  1.0000
  C   C1        1.0  0.6468244435053314  0.3521420902259127  0.5980418855805629  1.0000
  C   C2        1.0  0.5714602323289582  0.3083840390211152  0.5848191505812528  1.0000
  C   C3        1.0  0.5533689004158857  0.23699249585078896  0.4835671716650869  1.0000
  C   C4        1.0  0.4801941401977395  0.19439534006297632  0.47064907138732415  1.0000
  C   C5        1.0  0.4240619934784418  0.22281231879863683  0.5589516574726707  1.0000
  C   C6        1.0  0.3462960864257665  0.17765739225649235  0.5453022048574043  1.0000
  C   C7        1.0  0.2841197022684584  0.2593872346322663  0.5703145618447161  1.0000
  C   C8        1.0  0.2108026372162997  0.2165871056354236  0.5574096538998703  1.0000
  C   C9        1.0  0.1475761626200044  0.30100743655172324  0.5827729154879269  1.0000
  N   N2        1.0  0.0967550653389772  0.3688755420659804  0.6031642772665899  1.0000
  C   C10       1.0  0.1990784115309001  0.09179923701857162  0.5194679446617256  1.0000
  C   C11       1.0  0.2603974258740478  0.010055546831558848  0.4944474976665232  1.0000
  C   C12       1.0  0.3335950591374193  0.05246126232008774  0.5071571021147656  1.0000
  C   C13       1.0  0.4428447296395027  0.29469806877125215  0.6604150349321372  1.0000
  C   C14       1.0  0.5160723613346082  0.33710489207595806  0.6731830444980074  1.0000
  H   H1        1.0  0.5957638735767742  0.21451491964663716  0.4144161134574249  1.0000
  H   H2        1.0  0.4672816537132558  0.14073077035909565  0.39069066115079076  1.0000
  H   H3        1.0  0.2926171299101035  0.3568207331339299  0.5981600827893043  1.0000
  H   H4        1.0  0.1426134001440337  0.057774152374995946  0.5092515224044274  1.0000
  H   H5        1.0  0.2512016542185893  0.9134418927622003  0.4654444464206091  1.0000
  H   H6        1.0  0.3802359177365268  0.9867373995471772  0.4887891302702516  1.0000
  H   H7        1.0  0.4011666360314716  0.31663676013958053  0.7308143496491548  1.0000
  H   H8        1.0  0.5295131978266121  0.39198966316077244  0.752137036973803  1.0000
  C   C15       1.0  0.9020870937948559  0.9968503481223938  0.6059235712745288  1.0000
  C   C16       1.0  0.9799755623358805  0.9902466289435351  0.6259267071702481  1.0000
  C   C17       1.0  0.018612435018035667  0.8700329781389731  0.6358491768216392  1.0000
  C   C18       1.0  0.9799756213228744  0.7551642665510032  0.625926468714993  1.0000
  C   C19       1.0  0.9020871053454892  0.7593353649327763  0.6059234880878293  1.0000
  C   C20       1.0  0.8635189926180591  0.8807605671128532  0.5960185708158345  1.0000
  Br  Br1       1.0  0.12455415981120943  0.862705138558838  0.6630572241691619  1.0000
  H   H9        1.0  0.8727706267279844  0.326637590643172  0.5983940168845086  1.0000
  H   H10       1.0  0.010981488865305922  0.0781013065693359  0.6338897151637217  1.0000
  H   H11       1.0  0.01098157726730653  0.6630203682444995  0.6338891498077646  1.0000
  H   H12       1.0  0.8034484102037576  0.8849155146092776  0.5805915505074217  1.0000
  H   H13       1.0  0.8727704115760536  0.43360360861468944  0.5983958704314123  1.0000
  C   C21       1.0  0.9020871166752433  0.3780928466958968  0.23817830594297584  1.0000
  C   C22       1.0  0.8483144993375645  0.30843531299400984  0.17751649588390905  1.0000
  C   C23       1.0  0.848314452432215  0.30843539846230295  0.046634356594536186  1.0000
  C   C24       1.0  0.902087057615735  0.3780929131348325  0.9736687424547767  1.0000
  C   C25       1.0  0.9558152925892615  0.44769271312045955  0.034330600008801726  1.0000
  C   C26       1.0  0.9558152829773952  0.4476926934443355  0.16522289880781993  1.0000
  H   H14       1.0  0.9564654869964923  0.44853577768259045  0.5306668016782219  1.0000
  H   H15       1.0  0.806164983337903  0.25383444577974745  0.2311495859668533  1.0000
  H   H16       1.0  0.8061649676477429  0.2538345076348103  0.002645556963269735  1.0000
  H   H17       1.0  0.9979703127830346  0.5023007776932877  0.980741767430156  1.0000
  H   H18       1.0  0.997970274931249  0.5023007339748757  0.2091661354500216  1.0000
  H   H19       1.0  0.9564657214696564  0.44853531425208915  0.6687377726479458  1.0000
  Zn  Zn1       1.0  0.8197679686123748  0.38199420995099054  0.6070898480424227  1.0000
  Zn  Zn2       1.0  0.9843990383584814  0.37419123604275906  0.6047567460345127  1.0000
  C   C27       1.0  0.9020854126008925  0.37292092391017784  0.8346453411213823  1.0000
  C   C28       1.0  0.9020833921361479  0.38326607497327636  0.37720135039094327  1.0000
  C   C29       1.0  0.9020832372989807  0.6152096625355374  0.6009332671420131  1.0000
  C   C30       1.0  0.9020855112609538  0.14097577920467042  0.6109134919317996  1.0000
  O   O1        1.0  0.9645587751333262  0.3820354057708195  0.4229733540464904  1.0000
  O   O2        1.0  0.9645612022373583  0.36822833705418634  0.7871022065351441  1.0000
  O   O3        1.0  0.9645586034385991  0.563879597571769  0.5983780651807629  1.0000
  O   O4        1.0  0.9645613177546581  0.1863841572031235  0.6116974023008594  1.0000
  O   O5        1.0  0.8396056330356939  0.5698012914548116  0.6001491925656621  1.0000
  O   O6        1.0  0.8396082318310553  0.37415159074466064  0.7888732671481424  1.0000
  O   O7        1.0  0.8396058047770562  0.3879586142172933  0.42474290903619916  1.0000
  O   O8        1.0  0.8396083473953113  0.19230735636389618  0.6134670511801674  1.0000
