data_image0
_chemical_formula_structural       NC8NC6H8C7OH6C6OCH8Zn2C4O8
_chemical_formula_sum              "N2 C32 H22 O10 Zn2"
_cell_length_a       17.457602349358154
_cell_length_b       9.274078303013075
_cell_length_c       9.273891588657152
_cell_angle_alpha    86.24854706109078
_cell_angle_beta     92.54290593679647
_cell_angle_gamma    91.09880916489897

_space_group_name_H-M_alt    "P 1"
_space_group_IT_number       1

loop_
  _space_group_symop_operation_xyz
  'x, y, z'

loop_
  _atom_site_type_symbol
  _atom_site_label
  _atom_site_symmetry_multiplicity
  _atom_site_fract_x
  _atom_site_fract_y
  _atom_site_fract_z
  _atom_site_occupancy
  N   N1        1.0  0.718301834420629  0.5992875193168308  0.4801102006047224  1.0000
  C   C1        1.0  0.6575351400871458  0.5482006641281827  0.46819949399997585  1.0000
  C   C2        1.0  0.5819387230522461  0.4846550538602714  0.45339317920381994  1.0000
  C   C3        1.0  0.5229182380861813  0.5299769060938213  0.5366154322530619  1.0000
  C   C4        1.0  0.4487451303558391  0.46878886377059326  0.5224969647139468  1.0000
  C   C5        1.0  0.386105478837223  0.5166444139091309  0.6106321210946473  1.0000
  C   C6        1.0  0.3116346423468789  0.5365973691294199  0.5488090869474158  1.0000
  C   C7        1.0  0.2526148972460025  0.5817161057851645  0.6321506005798843  1.0000
  C   C8        1.0  0.17670968575819102  0.6023198121348006  0.5678709972609968  1.0000
  N   N2        1.0  0.1156948500220322  0.6188781113231716  0.5161903455477008  1.0000
  C   C9        1.0  0.26757066379341005  0.6071568099495248  0.7778801011428527  1.0000
  C   C10       1.0  0.3412531634385217  0.5876394918440011  0.8401343315505534  1.0000
  C   C11       1.0  0.400258690270409  0.5427251436454217  0.7573012260632674  1.0000
  C   C12       1.0  0.4348900175116697  0.3615128447926905  0.423564321348882  1.0000
  C   C13       1.0  0.49389577215427527  0.3165042986007909  0.3407867139851537  1.0000
  C   C14       1.0  0.5672815983826413  0.377822506344313  0.35551573391550684  1.0000
  H   H1        1.0  0.5345877935900746  0.6141074697987086  0.6107647703407169  1.0000
  H   H2        1.0  0.2997210885863534  0.5189739725995104  0.43555866898897366  1.0000
  H   H3        1.0  0.2223273147434283  0.6420196360398578  0.8432533965361861  1.0000
  H   H4        1.0  0.3526449049403211  0.6069883967103722  0.9529750308683183  1.0000
  H   H5        1.0  0.45667993861855705  0.5265365119511523  0.8084186177488386  1.0000
  H   H6        1.0  0.3787131822402823  0.3110802340469838  0.4116152257765078  1.0000
  H   H7        1.0  0.48273733611095054  0.23360133677141426  0.2653108978798273  1.0000
  H   H8        1.0  0.6125285010451811  0.34199924769999024  0.290707101139035  1.0000
  C   C15       1.0  0.9192914212349376  0.18571673566421887  0.49706590671632345  1.0000
  C   C16       1.0  0.9048575035984506  0.26729541628418607  0.3656355484236189  1.0000
  C   C17       1.0  0.8837835010123075  0.20002466830632537  0.2385259005179874  1.0000
  C   C18       1.0  0.8769399012201191  0.04908735160451072  0.24274826151254336  1.0000
  C   C19       1.0  0.8922447984795299  0.9664688042578399  0.3715750484088445  1.0000
  C   C20       1.0  0.914712626977118  0.03243822038121902  0.4992477783996945  1.0000
  C   C21       1.0  0.8683908911484264  0.28897311834067896  0.1029773452856626  1.0000
  O   O1        1.0  0.8490278507612513  0.231691741250454  0.9870883132767041  1.0000
  H   H9        1.0  0.9158623338953991  0.26537768912496507  0.8516513467878766  1.0000
  H   H10       1.0  0.9082967052515545  0.3843025222371539  0.3628388712698156  1.0000
  H   H11       1.0  0.8604535964869833  0.9945644501577855  0.1460921774379833  1.0000
  H   H12       1.0  0.8882501666056044  0.8498277738211192  0.3704412949633389  1.0000
  H   H13       1.0  0.9157623198135314  0.7357505538591794  0.7377279582683502  1.0000
  H   H14       1.0  0.8736889055448916  0.40553521585081764  0.10194372626591974  1.0000
  C   C22       1.0  0.918278853614413  0.6053211668869147  0.07498570354123002  1.0000
  C   C23       1.0  0.9807456826608604  0.6693110342024495  0.14941770927470222  1.0000
  C   C24       1.0  0.03880477840882657  0.7438519724013479  0.07509910769819395  1.0000
  C   C25       1.0  0.03460409005840681  0.7547746015580932  0.9233112398365462  1.0000
  C   C26       1.0  0.9737529614540668  0.689991202391339  0.8476810510719726  1.0000
  C   C27       1.0  0.9157251642454957  0.6128337556559829  0.92132791623728  1.0000
  O   O2        1.0  0.09918709820371263  0.8059635408670074  0.15596931865714914  1.0000
  C   C28       1.0  0.16192116648358734  0.8849503541751336  0.0948214708349071  1.0000
  H   H15       1.0  0.7363672803489796  0.5077813076258033  0.16921515832078327  1.0000
  H   H16       1.0  0.9836910319201018  0.6644286167835252  0.2666036560569889  1.0000
  H   H17       1.0  0.07847830401445433  0.8120047929898597  0.8625414259716431  1.0000
  H   H18       1.0  0.9730940607710867  0.697391030315897  0.7305628464980569  1.0000
  H   H19       1.0  0.794448251983751  0.5415065318306254  0.6346738587100464  1.0000
  H   H20       1.0  0.14081025325331242  0.9814968214499586  0.028808483662618123  1.0000
  H   H21       1.0  0.19428062231580645  0.8149750876718185  0.02712728316356916  1.0000
  H   H22       1.0  0.20098681159972287  0.9213457878842137  0.1833175853668476  1.0000
  Zn  Zn1       1.0  0.8329808703960959  0.6049371486193749  0.4905304614814312  1.0000
  Zn  Zn2       1.0  0.001015828119565132  0.6132167663597985  0.5057818521809851  1.0000
  C   C29       1.0  0.9162372267395967  0.6056702564578671  0.7613361804103687  1.0000
  C   C30       1.0  0.9177612964488547  0.6124855692587778  0.2349764459223027  1.0000
  C   C31       1.0  0.9155914853709073  0.8723386845961199  0.4930925398544661  1.0000
  C   C32       1.0  0.918406989613953  0.3458154068499122  0.5032201536385685  1.0000
  O   O3        1.0  0.9813560242832429  0.6180257902570787  0.2944586076788509  1.0000
  O   O4        1.0  0.9801771508861833  0.60641298245281  0.7134290536754162  1.0000
  O   O5        1.0  0.9796548424149228  0.8217510816010594  0.4968203418972852  1.0000
  O   O6        1.0  0.981878275685798  0.4026876976377447  0.511067206231294  1.0000
  O   O7        1.0  0.8521183654877931  0.8154662145175036  0.48524510221899564  1.0000
  O   O8        1.0  0.8526406648205754  0.6001298468159422  0.7018537416246358  1.0000
  O   O9        1.0  0.8538195437679377  0.6117425890039179  0.2828815629559642  1.0000
  O   O10       1.0  0.8543417948971288  0.3964044870317438  0.4994902695219683  1.0000
