data_image0
_chemical_formula_structural       NC9NC5H8C9H8C7H8Zn2C4O8
_chemical_formula_sum              "N2 C34 H24 Zn2 O8"
_cell_length_a       17.807436237873137
_cell_length_b       9.275152443626249
_cell_length_c       9.274345330872308
_cell_angle_alpha    84.93071507942183
_cell_angle_beta     88.93938532988027
_cell_angle_gamma    88.96355956710404

_space_group_name_H-M_alt    "P 1"
_space_group_IT_number       1

loop_
  _space_group_symop_operation_xyz
  'x, y, z'

loop_
  _atom_site_type_symbol
  _atom_site_label
  _atom_site_symmetry_multiplicity
  _atom_site_fract_x
  _atom_site_fract_y
  _atom_site_fract_z
  _atom_site_occupancy
  N   N1        1.0  0.7219893484740094  0.5531020994485272  0.3909686334639193  1.0000
  C   C1        1.0  0.6612464417013079  0.5141136724370081  0.3788556514334296  1.0000
  C   C2        1.0  0.5856889419964426  0.4656163630060004  0.36378841678658924  1.0000
  C   C3        1.0  0.5676540977422763  0.3871759846961491  0.24737283120703135  1.0000
  C   C4        1.0  0.49429139234343755  0.33996569846057434  0.23265212392240087  1.0000
  C   C5        1.0  0.43791275951034897  0.37077679662855134  0.3343124241222968  1.0000
  C   C6        1.0  0.3599474151602128  0.3207313614723648  0.31875888690094545  1.0000
  C   C7        1.0  0.2981305771916834  0.41131032930699885  0.3472644460731895  1.0000
  C   C8        1.0  0.2246243225898129  0.36387444754294473  0.33255974366503427  1.0000
  C   C9        1.0  0.1617714351383685  0.4574392627004562  0.36145912804969504  1.0000
  N   N2        1.0  0.1112506711558906  0.5326588918516095  0.3846934487212259  1.0000
  C   C10       1.0  0.2123499723725414  0.22557331020839566  0.2893223257270019  1.0000
  C   C11       1.0  0.2733093975840615  0.13497902825388097  0.2608074970829253  1.0000
  C   C12       1.0  0.3466948334212121  0.18197843194870922  0.2752886591401018  1.0000
  C   C13       1.0  0.45664090141195346  0.4497643750869338  0.4509697068376146  1.0000
  C   C14       1.0  0.5300560695765131  0.49676450859285337  0.46551817880478263  1.0000
  H   H1        1.0  0.6102407935248318  0.3627987171039617  0.16776203232438114  1.0000
  H   H2        1.0  0.48143932451313254  0.2810355625389076  0.14070835914637847  1.0000
  H   H3        1.0  0.307065840793149  0.5193101507471929  0.37897343405370654  1.0000
  H   H4        1.0  0.1557343606520816  0.18786254642275213  0.2776816189920748  1.0000
  H   H5        1.0  0.263685969385822  0.027899896323078766  0.22776117622720493  1.0000
  H   H6        1.0  0.3930384114788505  0.10912348455399856  0.25437792460835396  1.0000
  H   H7        1.0  0.41476211963322634  0.47353229240406325  0.5320212966272782  1.0000
  H   H8        1.0  0.5434482853351998  0.5570587764578985  0.5562995008303968  1.0000
  C   C15       1.0  0.9144018866581628  0.11935343399517206  0.38934027156522233  1.0000
  C   C16       1.0  0.8878026181660919  0.20442819913314936  0.26715770689994667  1.0000
  C   C17       1.0  0.8681945636186358  0.1409726246012275  0.14256684889647886  1.0000
  C   C18       1.0  0.8748799669900105  0.9913160805654565  0.1376903646283134  1.0000
  C   C19       1.0  0.9000146442255699  0.9046380167330673  0.2588603145725423  1.0000
  C   C20       1.0  0.9188452038991229  0.9663960582391536  0.38633422682968543  1.0000
  C   C21       1.0  0.8550539526246083  0.9261977877613343  0.008660967876829018  1.0000
  C   C22       1.0  0.8384543387426683  0.8716431763577872  0.90061905324918  1.0000
  C   C23       1.0  0.8183139982297742  0.8054387878217146  0.7695291321432602  1.0000
  H   H9        1.0  0.02116300340615851  0.19319196233411629  0.6758535197009738  1.0000
  H   H10       1.0  0.8838478328095642  0.3211568565792182  0.2667674818999617  1.0000
  H   H11       1.0  0.848491012081785  0.2089625850964627  0.04941215091628881  1.0000
  H   H12       1.0  0.9031933791575387  0.7881918612470858  0.2547829316344743  1.0000
  H   H13       1.0  0.9883039541567249  0.6659399668253301  0.5823570951366734  1.0000
  H   H14       1.0  0.8319905201431139  0.6878955018095317  0.78279173978127  1.0000
  H   H15       1.0  0.7572601579484928  0.8213789916199368  0.7507553439911634  1.0000
  H   H16       1.0  0.8504122847866091  0.8568165922985298  0.6755920561838775  1.0000
  C   C24       1.0  0.9183397206080087  0.5460283447707184  0.9639959112984702  1.0000
  C   C25       1.0  0.8741498378837446  0.6499660582782159  0.029615924273296068  1.0000
  C   C26       1.0  0.8254085835898981  0.7425410856873718  0.9480562934091745  1.0000
  C   C27       1.0  0.8191243499708695  0.7322584065618172  0.7992501461486277  1.0000
  C   C28       1.0  0.864500154415816  0.6323146210535857  0.7315926814529456  1.0000
  C   C29       1.0  0.914907341066458  0.5397211275282123  0.8116785884341366  1.0000
  C   C30       1.0  0.7678767362437233  0.8340538897291052  0.7112042580324585  1.0000
  H   H17       1.0  0.002920738709007109  0.22735981338456313  0.09205712134586475  1.0000
  H   H18       1.0  0.8761029399218441  0.657604971965633  0.1453746205343005  1.0000
  H   H19       1.0  0.7919085397679656  0.8213636132787072  0.0014916526692207999  1.0000
  H   H20       1.0  0.8616393535934962  0.6291756774215662  0.6152581327326669  1.0000
  H   H21       1.0  0.9746027656443615  0.32801981821145  0.5475431732189535  1.0000
  H   H22       1.0  0.7990759689071312  0.9325797225446097  0.6712303967177209  1.0000
  H   H23       1.0  0.7187401125105262  0.8660208613269289  0.7774695229484618  1.0000
  H   H24       1.0  0.7464955871307597  0.781863612481627  0.6171319659196484  1.0000
  Zn  Zn1       1.0  0.834321702513554  0.5471987208738327  0.38916611161295345  1.0000
  Zn  Zn2       1.0  0.9989181892035833  0.5385504257305911  0.38650787794267627  1.0000
  C   C31       1.0  0.9155243364281143  0.5351678066698968  0.6514688566205533  1.0000
  C   C32       1.0  0.9177173616497989  0.5505830641999891  0.12420523911142123  1.0000
  C   C33       1.0  0.9180247397399698  0.8063299412236407  0.38115100283436987  1.0000
  C   C34       1.0  0.9152168927714652  0.27941919924058767  0.3945231769036517  1.0000
  O   O1        1.0  0.9799719681890969  0.5488233946591148  0.17696418956077675  1.0000
  O   O2        1.0  0.9781946507579954  0.5303625353717534  0.5966919567033451  1.0000
  O   O3        1.0  0.9802129099394788  0.7493294214132726  0.37840838550452616  1.0000
  O   O4        1.0  0.9779536533342935  0.32985652269108123  0.39524765341092927  1.0000
  O   O5        1.0  0.85528618221418  0.7558926268662081  0.3804263370442278  1.0000
  O   O6        1.0  0.8532679324305107  0.5369274741832115  0.5987098251365275  1.0000
  O   O7        1.0  0.8550452566743048  0.5553882961207568  0.1789803228801483  1.0000
  O   O8        1.0  0.8530269413241574  0.33642141303210327  0.39726389497849524  1.0000
