data_image0
_chemical_formula_structural       NC8NC6H8C6OCH8C6FH5Zn2C4O8
_chemical_formula_sum              "N2 C31 H21 O9 F1 Zn2"
_cell_length_a       17.457602349358154
_cell_length_b       9.273888216677433
_cell_length_c       9.275646106892307
_cell_angle_alpha    85.15247369162395
_cell_angle_beta     92.91404810424501
_cell_angle_gamma    91.10627454168798

_space_group_name_H-M_alt    "P 1"
_space_group_IT_number       1

loop_
  _space_group_symop_operation_xyz
  'x, y, z'

loop_
  _atom_site_type_symbol
  _atom_site_label
  _atom_site_symmetry_multiplicity
  _atom_site_fract_x
  _atom_site_fract_y
  _atom_site_fract_z
  _atom_site_occupancy
  N   N1        1.0  0.7134389614715811  0.6289483593065406  0.47842455243220483  1.0000
  C   C1        1.0  0.6526290337861871  0.5780947885865111  0.4664730763858571  1.0000
  C   C2        1.0  0.576978869807113  0.5148391770210201  0.4516160637874558  1.0000
  C   C3        1.0  0.5182353592898236  0.558535170362471  0.5349881832143502  1.0000
  C   C4        1.0  0.4440109536070642  0.49762366236367606  0.5208211155606874  1.0000
  C   C5        1.0  0.3816646158923348  0.5437573753059588  0.6091149240284652  1.0000
  C   C6        1.0  0.3069923439986231  0.5649174141838378  0.5472037875161488  1.0000
  C   C7        1.0  0.248249948666219  0.6084079655939203  0.6306952661666254  1.0000
  C   C8        1.0  0.1721352861919523  0.6302667215622244  0.5663239981386681  1.0000
  N   N2        1.0  0.1109520517827871  0.6478340778213383  0.5145696451656734  1.0000
  C   C9        1.0  0.2636863779837613  0.6310023641760654  0.7766638372934518  1.0000
  C   C10       1.0  0.3375717642866247  0.6102695357438823  0.8390070335541997  1.0000
  C   C11       1.0  0.3963016275589643  0.5669734413158973  0.7560248471887747  1.0000
  C   C12       1.0  0.4298222783581  0.39228113561965317  0.42168718264755456  1.0000
  C   C13       1.0  0.4885525441227995  0.34888976062131616  0.3387605404477274  1.0000
  C   C14       1.0  0.56199168400122  0.4099195087655674  0.35353917232336385  1.0000
  H   H1        1.0  0.5301552178483645  0.6412165453450036  0.6092900013557891  1.0000
  H   H2        1.0  0.2947054269130277  0.5495059317598998  0.4337685114121348  1.0000
  H   H3        1.0  0.2186605402284373  0.6645880446390717  0.842154536717207  1.0000
  H   H4        1.0  0.3493356624973711  0.6274145050119335  0.9520326973367881  1.0000
  H   H5        1.0  0.45288945446896284  0.5497867476049392  0.8072152188354571  1.0000
  H   H6        1.0  0.3736021363609547  0.342082550349732  0.4096975409746624  1.0000
  H   H7        1.0  0.4771395474233712  0.2674618761341747  0.26313070029513685  1.0000
  H   H8        1.0  0.607022852495144  0.3753623811547384  0.28861360309352535  1.0000
  C   C15       1.0  0.9144509182560726  0.21505194234795355  0.4952276354969767  1.0000
  C   C16       1.0  0.8965051341348672  0.2988348775444114  0.3646853723318213  1.0000
  C   C17       1.0  0.8720355375791924  0.23426015212595286  0.23921212807637637  1.0000
  C   C18       1.0  0.865369749224861  0.08290721808818091  0.24380475571601568  1.0000
  C   C19       1.0  0.8841174384404618  0.9979968402800733  0.37164375029926644  1.0000
  C   C20       1.0  0.9099474705284978  0.0617195825874417  0.4977796794419509  1.0000
  O   O1        1.0  0.8545557663697427  0.3241871446077269  0.11295532963312027  1.0000
  C   C21       1.0  0.8289205110105445  0.27345896884388665  0.9778067628286333  1.0000
  H   H9        1.0  0.9207929079662869  0.2882557293046393  0.8509687358605404  1.0000
  H   H10       1.0  0.8997435263795739  0.4159098561783625  0.36070195751168876  1.0000
  H   H11       1.0  0.8464126105541137  0.029563604287908163  0.14873923764285024  1.0000
  H   H12       1.0  0.8801315663771027  0.8813441722338126  0.3708007452418365  1.0000
  H   H13       1.0  0.917432702309804  0.7606078131492077  0.7366772267356925  1.0000
  H   H14       1.0  0.7738833974852622  0.21254303487178827  0.9894356451471098  1.0000
  H   H15       1.0  0.8729450441112551  0.20340309469005935  0.9385336483744919  1.0000
  H   H16       1.0  0.8195706513185392  0.36754987415258245  0.8971639135447385  1.0000
  C   C22       1.0  0.9120859333372274  0.6428936476003022  0.0726686962253178  1.0000
  C   C23       1.0  0.9822371477407814  0.6612973656935126  0.15116096596329487  1.0000
  C   C24       1.0  0.051509605976435724  0.6661196970748455  0.08201931382916006  1.0000
  C   C25       1.0  0.051848198805745094  0.6524783098055147  0.9336260869177013  1.0000
  C   C26       1.0  0.982886151295521  0.6365353845366126  0.8533183945884213  1.0000
  C   C27       1.0  0.9123124426993983  0.6338778986409102  0.9203386096849653  1.0000
  F   F1        1.0  0.11861144567282533  0.682326295438346  0.15960149421497616  1.0000
  H   H17       1.0  0.7348491295651504  0.5173229060529345  0.1692961301070981  1.0000
  H   H18       1.0  0.9835607817402963  0.668531401701882  0.26723365071412064  1.0000
  H   H19       1.0  0.10563277205380217  0.6556368368891219  0.8802033614653109  1.0000
  H   H20       1.0  0.9846719199779891  0.6297278300081606  0.7375237427166215  1.0000
  H   H21       1.0  0.7922890934842444  0.5552346983815692  0.6343242910828284  1.0000
  Zn  Zn1       1.0  0.8281526754025947  0.6343944151008218  0.4888635672003083  1.0000
  Zn  Zn2       1.0  0.9962383896285081  0.6423760767129352  0.5041424112471873  1.0000
  C   C28       1.0  0.9122984866693585  0.6298389184911128  0.7600933832748431  1.0000
  C   C29       1.0  0.9120944042153524  0.64693347792855  0.23291290915992202  1.0000
  C   C30       1.0  0.9107932465660263  0.9017423620776028  0.49154549191567587  1.0000
  C   C31       1.0  0.9135995961959534  0.3750282987829139  0.5014608670332736  1.0000
  O   O2        1.0  0.9758849331347645  0.6513119916079182  0.292490553601938  1.0000
  O   O3        1.0  0.9760811312823452  0.6315172181682083  0.7121116091835353  1.0000
  O   O4        1.0  0.9748647713755513  0.8510826307584496  0.4952572132441262  1.0000
  O   O5        1.0  0.9771012356015161  0.431746587757702  0.5093448361413024  1.0000
  O   O6        1.0  0.8472897720701718  0.845023901333956  0.4836611370846866  1.0000
  O   O7        1.0  0.8485061227402809  0.6254602215807612  0.7005154612884048  1.0000
  O   O8        1.0  0.8483099244471749  0.6452549632425943  0.2808926702948449  1.0000
  O   O9        1.0  0.8495262269945534  0.4256895479302538  0.4977470610127477  1.0000
