data_image0
_chemical_formula_structural       NC9NC5H8C6SCH8C9H8Zn2C4O8
_chemical_formula_sum              "N2 C34 H24 S1 Zn2 O8"
_cell_length_a       17.807436237873137
_cell_length_b       10.302809429070853
_cell_length_c       9.275155815604963
_cell_angle_alpha    86.05280374454347
_cell_angle_beta     89.76311116066846
_cell_angle_gamma    88.39000425637651

_space_group_name_H-M_alt    "P 1"
_space_group_IT_number       1

loop_
  _space_group_symop_operation_xyz
  'x, y, z'

loop_
  _atom_site_type_symbol
  _atom_site_label
  _atom_site_symmetry_multiplicity
  _atom_site_fract_x
  _atom_site_fract_y
  _atom_site_fract_z
  _atom_site_occupancy
  N   N1        1.0  0.702204227751116  0.37517359121925864  0.3988309925883098  1.0000
  C   C1        1.0  0.6415769257297004  0.33990167960300544  0.38659761066188625  1.0000
  C   C2        1.0  0.5661632254660859  0.296027305754778  0.37138061183191784  1.0000
  C   C3        1.0  0.5476929186981452  0.22374911803614772  0.25485773483535357  1.0000
  C   C4        1.0  0.4744698095478873  0.1810383218956697  0.23999131599292856  1.0000
  C   C5        1.0  0.4186681716488332  0.21022802529717288  0.3416117620157848  1.0000
  C   C6        1.0  0.3408511784204301  0.1649530224408573  0.32590368766656286  1.0000
  C   C7        1.0  0.2787684087515225  0.24690288659162452  0.3546884289891665  1.0000
  C   C8        1.0  0.20540304415783603  0.20398922947526232  0.33983719214967634  1.0000
  C   C9        1.0  0.1422714972952987  0.28863269283253756  0.3690257618481736  1.0000
  N   N2        1.0  0.0915267192905081  0.3566801906120012  0.3924925656917684  1.0000
  C   C10       1.0  0.1935368129651129  0.07886759318015857  0.29617308296501155  1.0000
  C   C11       1.0  0.2547621825403683  0.9969038102492715  0.2673790314932827  1.0000
  C   C12       1.0  0.3280073843619883  0.03942133964310446  0.2820055090099829  1.0000
  C   C13       1.0  0.4378306738845243  0.28300227634423947  0.45837792085170603  1.0000
  C   C14       1.0  0.5111060927441973  0.3255214243758753  0.4730716121875289  1.0000
  H   H1        1.0  0.5898290655385906  0.20066640627484134  0.17527726397679877  1.0000
  H   H2        1.0  0.4612580474910872  0.12667361346770423  0.1479735194911198  1.0000
  H   H3        1.0  0.2873700542486667  0.3445814287553566  0.38673363461999344  1.0000
  H   H4        1.0  0.137033564312238  0.04475262959163029  0.28441581144419725  1.0000
  H   H5        1.0  0.245457860421321  0.9000350015957945  0.23400171604470255  1.0000
  H   H6        1.0  0.3745794969630555  0.9735358141706169  0.26086726428646045  1.0000
  H   H7        1.0  0.3964160787696488  0.3055570120268205  0.5393949111371208  1.0000
  H   H8        1.0  0.5248424452654563  0.3810975685717841  0.5639335039685165  1.0000
  C   C15       1.0  0.8968690986502769  0.9846733638486316  0.3956680054968007  1.0000
  C   C16       1.0  0.9397932731341896  0.9893151552929118  0.26815333526335405  1.0000
  C   C17       1.0  0.9609442462312439  0.8746542842365177  0.20454619688815345  1.0000
  C   C18       1.0  0.9397931781595033  0.7541640012831717  0.2681532593541356  1.0000
  C   C19       1.0  0.8968690686830518  0.7471702265825327  0.3956679984186293  1.0000
  C   C20       1.0  0.8755972083689793  0.8630440156482573  0.45877519255749033  1.0000
  S   S1        1.0  0.01592535899062053  0.8820701673081457  0.04179349076907335  1.0000
  C   C21       1.0  0.9341308568288386  0.8933312341006118  0.9241844121447245  1.0000
  H   H9        1.0  0.8806682469650792  0.31024035339710343  0.44369152986538096  1.0000
  H   H10       1.0  0.9568422828900673  0.08172570267759016  0.21750255466419333  1.0000
  H   H11       1.0  0.9568421167482837  0.6663753162107184  0.2175024450588423  1.0000
  H   H12       1.0  0.8424755773534841  0.8585580366478637  0.5571183266648065  1.0000
  H   H13       1.0  0.8806670147236796  0.4172246316633801  0.44368996508800174  1.0000
  H   H14       1.0  0.8997193989636062  0.8056596769321788  0.9439630018576914  1.0000
  H   H15       1.0  0.8997201007855555  0.9818946011980525  0.9439624665226471  1.0000
  H   H16       1.0  0.9531577323151478  0.8994855730158953  0.8099570029268808  1.0000
  C   C22       1.0  0.8954926523589205  0.36270551265291995  0.9724591504241928  1.0000
  C   C23       1.0  0.8367245018563384  0.4287580830578157  0.04123079278140196  1.0000
  C   C24       1.0  0.7829881202442565  0.5032001141014275  0.9608208742666622  1.0000
  C   C25       1.0  0.7870233478075763  0.5131422888419381  0.8101733802815927  1.0000
  C   C26       1.0  0.844279762047119  0.4464639804935886  0.7397179850704294  1.0000
  C   C27       1.0  0.8982454946226988  0.3691380251694032  0.8188767576700657  1.0000
  C   C28       1.0  0.7317684372158588  0.5906896262763057  0.72747556558592  1.0000
  C   C29       1.0  0.6855024036397844  0.6556248168658421  0.6582007503733758  1.0000
  C   C30       1.0  0.6293668913698415  0.7344126677604355  0.5741359904862997  1.0000
  H   H17       1.0  0.0698605918736046  0.24967465072303896  0.08257820416890582  1.0000
  H   H18       1.0  0.8333494547291562  0.42531951609015484  0.15807727875907207  1.0000
  H   H19       1.0  0.7386566901323667  0.554103522309163  0.01635563966665199  1.0000
  H   H20       1.0  0.8456677807632172  0.4525030179710776  0.6225490909820035  1.0000
  H   H21       1.0  0.014590601747498821  0.2884264537150243  0.5434002162580289  1.0000
  H   H22       1.0  0.6446325008085588  0.7374177609796364  0.45788847000156485  1.0000
  H   H23       1.0  0.573416668101882  0.6908384046037113  0.5900731748089374  1.0000
  H   H24       1.0  0.6274656820016651  0.8347521406688128  0.6106716617920038  1.0000
  Zn  Zn1       1.0  0.8145543148957055  0.36983339438912766  0.3970101943037354  1.0000
  Zn  Zn2       1.0  0.9791766524830264  0.36200989451543064  0.3943252119181697  1.0000
  C   C31       1.0  0.8977234841989221  0.3627501419740098  0.6588857686776142  1.0000
  C   C32       1.0  0.896009281310592  0.3690947006964769  0.13244974967501055  1.0000
  C   C33       1.0  0.8968465254662032  0.6029986163722221  0.38992508156640415  1.0000
  C   C34       1.0  0.8968861841191792  0.12884466972177178  0.40141051453732546  1.0000
  O   O1        1.0  0.9586559858843615  0.3682643291147869  0.18512511949377952  1.0000
  O   O2        1.0  0.9600213234030941  0.35764167559641047  0.6041721444939288  1.0000
  O   O3        1.0  0.9593123308393084  0.5516454084412903  0.3869845004459924  1.0000
  O   O4        1.0  0.9593649219222515  0.1742606074057369  0.4023126564002937  1.0000
  O   O5        1.0  0.8343659892789315  0.5575826841699534  0.3890227507302835  1.0000
  O   O6        1.0  0.8350749815892994  0.3635805105726977  0.6062103179357872  1.0000
  O   O7        1.0  0.8337096384851568  0.37420310567836457  0.1871615602331702  1.0000
  O   O8        1.0  0.8344185748713933  0.18019937550461718  0.40434920518977924  1.0000
