data_image0
_chemical_formula_structural       NC9NC5H8C9H8C6H6Zn2C4O8
_chemical_formula_sum              "N2 C33 H22 Zn2 O8"
_cell_length_a       17.807436237873137
_cell_length_b       9.275152443626249
_cell_length_c       10.681121600428288
_cell_angle_alpha    85.36323627709002
_cell_angle_beta     89.39214167786866
_cell_angle_gamma    88.96355956710404

_space_group_name_H-M_alt    "P 1"
_space_group_IT_number       1

loop_
  _space_group_symop_operation_xyz
  'x, y, z'

loop_
  _atom_site_type_symbol
  _atom_site_label
  _atom_site_symmetry_multiplicity
  _atom_site_fract_x
  _atom_site_fract_y
  _atom_site_fract_z
  _atom_site_occupancy
  N   N1        1.0  0.7154742730591143  0.5411299327303496  0.603926685486549  1.0000
  C   C1        1.0  0.654682320013562  0.5020513778050186  0.5934168773351065  1.0000
  C   C2        1.0  0.5790638120697901  0.45344195903361806  0.580343816951423  1.0000
  C   C3        1.0  0.5605575933382245  0.37413537834378885  0.47933603313738815  1.0000
  C   C4        1.0  0.4871352828129013  0.3268155611410206  0.4665636366271335  1.0000
  C   C5        1.0  0.4311682793217123  0.3583830734398381  0.554769022305871  1.0000
  C   C6        1.0  0.3531399576610819  0.30822191055792536  0.5412740223247543  1.0000
  C   C7        1.0  0.2914385406045455  0.39901297699666527  0.5660068220099008  1.0000
  C   C8        1.0  0.2178727456810038  0.35146768335138057  0.5532483121033587  1.0000
  C   C9        1.0  0.1551368737661274  0.44524752741081475  0.578322813560809  1.0000
  N   N2        1.0  0.1047101870990687  0.5206400339628992  0.598482032172067  1.0000
  C   C10       1.0  0.2054233242721631  0.2128448334717663  0.5157334403443947  1.0000
  C   C11       1.0  0.26626729103898  0.1220383839426682  0.4909925980178591  1.0000
  C   C12       1.0  0.3397113620679982  0.1691455362432892  0.5035571535210195  1.0000
  C   C13       1.0  0.4503687743485535  0.4382386526510984  0.6559865142265631  1.0000
  C   C14       1.0  0.5238428502472996  0.48534703558925885  0.6686094710580608  1.0000
  H   H1        1.0  0.6028219396816408  0.34916575824896423  0.41026185958262906  1.0000
  H   H2        1.0  0.47391092854126066  0.2672013079898896  0.38678878629836677  1.0000
  H   H3        1.0  0.3005021960150954  0.5072487324891484  0.5935190712242389  1.0000
  H   H4        1.0  0.1487605785530516  0.17504745578620362  0.5056334010457855  1.0000
  H   H5        1.0  0.25651005608157  0.014713367393992316  0.4623200142205397  1.0000
  H   H6        1.0  0.3859702711656097  0.09613500033413458  0.48541399045174116  1.0000
  H   H7        1.0  0.4088181758675291  0.46260964282679096  0.7263107875487407  1.0000
  H   H8        1.0  0.537602645639026  0.5463167714065089  0.7473757299216475  1.0000
  C   C15       1.0  0.9078802178972376  0.10736915127942326  0.6025138400688523  1.0000
  C   C16       1.0  0.8807862240444712  0.19153480422440694  0.49650234670982485  1.0000
  C   C17       1.0  0.8606736927958264  0.12715219834020686  0.38840130175292686  1.0000
  C   C18       1.0  0.867339350956867  0.9774593703115495  0.38417022851407157  1.0000
  C   C19       1.0  0.8929646534085186  0.8916828842060684  0.4893031284414606  1.0000
  C   C20       1.0  0.9123113634623933  0.9543894087321261  0.599905650492939  1.0000
  C   C21       1.0  0.8469908879505883  0.9113810207418589  0.2722180930002003  1.0000
  C   C22       1.0  0.8299538051439223  0.8560225121356996  0.17847571047268218  1.0000
  C   C23       1.0  0.8092826727894894  0.7888427352863889  0.0647357645251807  1.0000
  H   H9        1.0  0.015801445913287138  0.18333951150492234  0.8511065700154401  1.0000
  H   H10       1.0  0.876829858640869  0.308260558160417  0.49616376865568346  1.0000
  H   H11       1.0  0.8405929516682599  0.19444903153040904  0.3075757872996714  1.0000
  H   H12       1.0  0.896126878744783  0.7752063905244969  0.48576539410558883  1.0000
  H   H13       1.0  0.9825638233993862  0.6553918460385963  0.7699845570756676  1.0000
  H   H14       1.0  0.8230128958865081  0.6713981310979806  0.07624304336968701  1.0000
  H   H15       1.0  0.7481528161867254  0.8046432507439341  0.04844671932906652  1.0000
  H   H16       1.0  0.8410006018549424  0.8395215910927225  0.983231421155764  1.0000
  C   C24       1.0  0.9100958041382619  0.5308792427110727  0.2334645330155254  1.0000
  C   C25       1.0  0.8559183770534021  0.4534989176492754  0.17304098687121905  1.0000
  C   C26       1.0  0.8559183306447455  0.45349901259326764  0.04215884728950137  1.0000
  C   C27       1.0  0.9100957454648588  0.5308793165159602  0.9689549693000719  1.0000
  C   C28       1.0  0.9642284546702268  0.6081955070399148  0.02937876041777865  1.0000
  C   C29       1.0  0.9642284449440139  0.6081954851823386  0.16027105928409924  1.0000
  H   H17       1.0  0.9648835484865252  0.6091320404828728  0.5257120783809826  1.0000
  H   H18       1.0  0.8134515520409428  0.39284456155654524  0.2268608394718752  1.0000
  H   H19       1.0  0.813451536710249  0.39284463026935534  0.9983568102567162  1.0000
  H   H20       1.0  0.0067008257037295405  0.6688578584479516  0.9756031407028227  1.0000
  H   H21       1.0  0.006700787597877289  0.6688578098825668  0.20402750887222765  1.0000
  H   H22       1.0  0.9648837802664962  0.6091315256727587  0.663783050935872  1.0000
  Zn  Zn1       1.0  0.8277993285673557  0.5352131423026845  0.6023627304839951  1.0000
  Zn  Zn2       1.0  0.9923850518918023  0.5265450682928907  0.6000563185842662  1.0000
  C   C30       1.0  0.9100640438066184  0.5251339191963729  0.8299492587796347  1.0000
  C   C31       1.0  0.9101221434432304  0.5366260164546808  0.3724698824123507  1.0000
  C   C32       1.0  0.9114699120832738  0.7942847253946006  0.5954084350541968  1.0000
  C   C33       1.0  0.908716209940243  0.2674734804758512  0.6070107790254913  1.0000
  O   O1        1.0  0.9725903744948511  0.5352589054206156  0.4182460955775711  1.0000
  O   O2        1.0  0.9725125628120721  0.5199210746266623  0.7824221752083442  1.0000
  O   O3        1.0  0.9736469772421293  0.7372637988522077  0.5930288078165005  1.0000
  O   O4        1.0  0.971455903956812  0.3179161944698161  0.6076393698285278  1.0000
  O   O5        1.0  0.8487284203373243  0.7438420190853177  0.5947796800202065  1.0000
  O   O6        1.0  0.8475940149685774  0.5265010275999318  0.7841729753048206  1.0000
  O   O7        1.0  0.8476718264384572  0.5418388081337728  0.4199953902055158  1.0000
  O   O8        1.0  0.8465373558433782  0.32449608686778597  0.609388758377833  1.0000
