data_image0
_chemical_formula_structural       NC8NC6H8C9H8C6SCH8Zn2C4O8
_chemical_formula_sum              "N2 C34 H24 S1 Zn2 O8"
_cell_length_a       17.457602349358154
_cell_length_b       9.275152443626249
_cell_length_c       10.302812801239593
_cell_angle_alpha    85.36323255816029
_cell_angle_beta     92.87590592568559
_cell_angle_gamma    92.27213218982278

_space_group_name_H-M_alt    "P 1"
_space_group_IT_number       1

loop_
  _space_group_symop_operation_xyz
  'x, y, z'

loop_
  _atom_site_type_symbol
  _atom_site_label
  _atom_site_symmetry_multiplicity
  _atom_site_fract_x
  _atom_site_fract_y
  _atom_site_fract_z
  _atom_site_occupancy
  N   N1        1.0  0.7310490829401105  0.614247445728187  0.6226130516539243  1.0000
  C   C1        1.0  0.6696985378370266  0.5632198990373969  0.6121373927122054  1.0000
  C   C2        1.0  0.5933759106158312  0.4997479801868727  0.5991151949324782  1.0000
  C   C3        1.0  0.5350856794435712  0.5443716927714906  0.6738697293152025  1.0000
  C   C4        1.0  0.4602137089747825  0.4832533771128038  0.6614554699080695  1.0000
  C   C5        1.0  0.3983458966132398  0.5303694448358043  0.7406237378406466  1.0000
  C   C6        1.0  0.3239088643203213  0.5508898467097887  0.6848228013268358  1.0000
  C   C7        1.0  0.2656175385160144  0.5953091991844932  0.7596858029678657  1.0000
  C   C8        1.0  0.18974594736327344  0.6165027705916826  0.7016682992745187  1.0000
  N   N2        1.0  0.1287580667138034  0.6335353135123518  0.655022396298212  1.0000
  C   C9        1.0  0.28127252556700033  0.6194783033922291  0.8908573747794166  1.0000
  C   C10       1.0  0.3549271628599827  0.5993901042290637  0.9470446293405097  1.0000
  C   C11       1.0  0.41320795252666986  0.5551708092505931  0.8726386688751913  1.0000
  C   C12       1.0  0.4449165944137872  0.37675867065695945  0.5728562242665041  1.0000
  C   C13       1.0  0.5031967616674641  0.3324445988333129  0.4985007376197812  1.0000
  C   C14       1.0  0.5772846335132019  0.3936877738496458  0.5114644391406926  1.0000
  H   H1        1.0  0.5478760707255552  0.6279200623734005  0.7402556043207416  1.0000
  H   H2        1.0  0.3114750045895541  0.5342566007080924  0.5828750079917882  1.0000
  H   H3        1.0  0.2365948712784152  0.6537920496189338  0.94958274771869  1.0000
  H   H4        1.0  0.3668565578765643  0.6177540698736563  0.04861464236872515  1.0000
  H   H5        1.0  0.4696045729809861  0.5385132748062413  0.91877523818031  1.0000
  H   H6        1.0  0.3881628276147974  0.3263863051739315  0.5623427043138243  1.0000
  H   H7        1.0  0.49092680757071794  0.2501367342064411  0.4309135948396041  1.0000
  H   H8        1.0  0.6219571691474148  0.35840770373304087  0.45325261941082085  1.0000
  C   C15       1.0  0.9276434124721457  0.20014945905514137  0.639959008313649  1.0000
  C   C16       1.0  0.8999596253864881  0.28154626779662983  0.5274060201487709  1.0000
  C   C17       1.0  0.8794092767586927  0.21510828369048962  0.41336930096613655  1.0000
  C   C18       1.0  0.8862200362273952  0.06609664838615026  0.4096345389966609  1.0000
  C   C19       1.0  0.9124031607496047  0.9829389146322263  0.5211330851913762  1.0000
  C   C20       1.0  0.9321710173782098  0.04762255461365039  0.6376882622122095  1.0000
  C   C21       1.0  0.8654286200315761  0.9979388100021975  0.29158225510887226  1.0000
  C   C22       1.0  0.8480206674366426  0.940839215442774  0.19273210690904086  1.0000
  C   C23       1.0  0.8268995579020821  0.8715469749407317  0.0727948200423616  1.0000
  H   H9        1.0  0.0379139172222247  0.2871487368511396  0.908230793603652  1.0000
  H   H10       1.0  0.8959171359334444  0.39786770368686564  0.5266682134617517  1.0000
  H   H11       1.0  0.858891409814178  0.2803529853520661  0.327612750096288  1.0000
  H   H12       1.0  0.9156342229797686  0.8667855826874756  0.5177746056564443  1.0000
  H   H13       1.0  0.003952763607028231  0.7558043813339668  0.8208805668786587  1.0000
  H   H14       1.0  0.8409286668709218  0.7555055206872404  0.08606697783466677  1.0000
  H   H15       1.0  0.7644389976061688  0.8811003675195235  0.04993126124562397  1.0000
  H   H16       1.0  0.8593079393995505  0.9254672291403  0.9913986417949725  1.0000
  C   C24       1.0  0.9299072348834985  0.6238859989115295  0.25757519292417297  1.0000
  C   C25       1.0  0.9047955017787231  0.7665308442900611  0.2438833423460096  1.0000
  C   C26       1.0  0.8921017146248588  0.8372839906284626  0.12007957242400624  1.0000
  C   C27       1.0  0.9047954317856917  0.7665306894605672  0.00873216742482863  1.0000
  C   C28       1.0  0.9299071850546811  0.623885986773137  0.020072092523445884  1.0000
  C   C29       1.0  0.9423166296631165  0.5532468856581032  0.14501944489738694  1.0000
  S   S1        1.0  0.8601759420969045  0.019648357790180704  0.10409362054852189  1.0000
  C   C30       1.0  0.758962838716364  0.9643371692155331  0.09951492402353734  1.0000
  H   H17       1.0  0.9393420180142261  0.5701101894935929  0.5900470792422863  1.0000
  H   H18       1.0  0.8948200756904804  0.823189736645559  0.3290114635232184  1.0000
  H   H19       1.0  0.8948199209374317  0.8231895213317624  0.9136611385777225  1.0000
  H   H20       1.0  0.9616724554045792  0.4432083528804318  0.15467304884447364  1.0000
  H   H21       1.0  0.9393405851129374  0.5701093710425957  0.6970313792944025  1.0000
  H   H22       1.0  0.7450118572253559  0.8994842198192179  0.014931680454455032  1.0000
  H   H23       1.0  0.7450121936929188  0.8994856940651272  0.19116639536445534  1.0000
  H   H24       1.0  0.7239775545203133  0.0622133965616718  0.08941723974143412  1.0000
  Zn  Zn1       1.0  0.8458192840285975  0.6198096380708189  0.6319731949063416  1.0000
  Zn  Zn2       1.0  0.013987788168645654  0.6279612902909064  0.6456729139145241  1.0000
  C   C31       1.0  0.9298747731101269  0.6181373842609312  0.8759591280587491  1.0000
  C   C32       1.0  0.9299341452088898  0.6296354538000113  0.4016872529104851  1.0000
  C   C33       1.0  0.9313112489587556  0.8874318800671113  0.6329436485928117  1.0000
  C   C34       1.0  0.9284976027140502  0.3603392215474628  0.6447028015635965  1.0000
  O   O1        1.0  0.9937622138313587  0.634652237666363  0.4552515655561922  1.0000
  O   O2        1.0  0.9936827021599742  0.6193064272356701  0.8327922143391053  1.0000
  O   O3        1.0  0.9948418142627751  0.8367650965908631  0.6365554211897431  1.0000
  O   O4        1.0  0.9926030443991921  0.4171935758520062  0.6514882566591982  1.0000
  O   O5        1.0  0.8672039704104023  0.8305773497295312  0.626157847479792  1.0000
  O   O6        1.0  0.8660448675661641  0.6131204140405178  0.8223945667601045  1.0000
  O   O7        1.0  0.8661243790200402  0.6284661741894557  0.4448523572085672  1.0000
  O   O8        1.0  0.8649652095295907  0.4110075020540749  0.6410891456760546  1.0000
