data_image0
_chemical_formula_structural       NC9NC5H8C7OH6C6FH5Zn2C4O8
_chemical_formula_sum              "N2 C31 H19 O9 F1 Zn2"
_cell_length_a       17.807436237873137
_cell_length_b       9.274078303013075
_cell_length_c       9.275646106892307
_cell_angle_alpha    85.12816717497476
_cell_angle_beta     89.39821068290672
_cell_angle_gamma    87.81002060722456

_space_group_name_H-M_alt    "P 1"
_space_group_IT_number       1

loop_
  _space_group_symop_operation_xyz
  'x, y, z'

loop_
  _atom_site_type_symbol
  _atom_site_label
  _atom_site_symmetry_multiplicity
  _atom_site_fract_x
  _atom_site_fract_y
  _atom_site_fract_z
  _atom_site_occupancy
  N   N1        1.0  0.6988413981486774  0.5584294319776395  0.4013671870894642  1.0000
  C   C1        1.0  0.6384573057034337  0.5194763996641631  0.3889926013319205  1.0000
  C   C2        1.0  0.5633461314255065  0.4710231174007147  0.37359996045867705  1.0000
  C   C3        1.0  0.5456435058759578  0.3929504454349013  0.25665707069465027  1.0000
  C   C4        1.0  0.47271505554318477  0.345783189750023  0.24161959225318763  1.0000
  C   C5        1.0  0.4164427198181577  0.3762696845669562  0.3434876151488606  1.0000
  C   C6        1.0  0.3389379258896065  0.32626969917111426  0.3275982840625822  1.0000
  C   C7        1.0  0.2762890232597419  0.41676526344088405  0.356711611992258  1.0000
  C   C8        1.0  0.2032194643781103  0.3693723397065536  0.341688625653926  1.0000
  C   C9        1.0  0.139504773278275  0.46285276021146404  0.3712158074498104  1.0000
  N   N2        1.0  0.0882911840243945  0.5380045379860985  0.39495483375877627  1.0000
  C   C10       1.0  0.1922167708563088  0.2311976248354568  0.2975232347631298  1.0000
  C   C11       1.0  0.2540083825663746  0.14068677488125525  0.26840053455890467  1.0000
  C   C12       1.0  0.326960767361646  0.18764390004651998  0.28319705093237135  1.0000
  C   C13       1.0  0.4348339105877935  0.45488882898496397  0.4606758744091166  1.0000
  C   C14       1.0  0.5078163049910711  0.5018464672113279  0.47553970630847364  1.0000
  H   H1        1.0  0.5881495778683119  0.3688273535665534  0.1768819336085743  1.0000
  H   H2        1.0  0.4600935920961047  0.28714374508887697  0.1492796300366066  1.0000
  H   H3        1.0  0.2842225449434909  0.5246729815218407  0.38914523513107735  1.0000
  H   H4        1.0  0.135948533908906  0.1935208532034709  0.2856294979463818  1.0000
  H   H5        1.0  0.24537135052325879  0.03370413967571961  0.2346357387679474  1.0000
  H   H6        1.0  0.3739821350110543  0.11484953908990381  0.26179749428584365  1.0000
  H   H7        1.0  0.3930482615707399  0.478397872889609  0.5418877312687249  1.0000
  H   H8        1.0  0.5209586467107035  0.561853915040456  0.5667263617963001  1.0000
  C   C15       1.0  0.8958093719216639  0.12464570029489841  0.39682989446130645  1.0000
  C   C16       1.0  0.8812450836860984  0.2102612423513346  0.2667839678542778  1.0000
  C   C17       1.0  0.8601892848480299  0.14759822374014897  0.1417747776096785  1.0000
  C   C18       1.0  0.8534980702078778  0.9972538536603939  0.14673482844587382  1.0000
  C   C19       1.0  0.8689072926476294  0.9105640038996  0.27408077431393174  1.0000
  C   C20       1.0  0.8913304623903381  0.9717766725257299  0.39950454087449994  1.0000
  C   C21       1.0  0.844672490004499  0.24076010637282463  0.007708240540969413  1.0000
  O   O1        1.0  0.825329075286623  0.18769448020098367  0.8937502340784791  1.0000
  H   H9        1.0  0.8935913074728631  0.19760571353913847  0.7522155534104813  1.0000
  H   H10       1.0  0.8846055330987285  0.3269837641601221  0.26361574568921475  1.0000
  H   H11       1.0  0.8370349636775686  0.9462803594256803  0.051725342771071325  1.0000
  H   H12       1.0  0.8649900246794981  0.7943405213268033  0.27337321700120665  1.0000
  H   H13       1.0  0.893126580413319  0.670250339476204  0.6381636978088527  1.0000
  H   H14       1.0  0.8498597298788214  0.35681879333363886  0.006106264972409958  1.0000
  C   C22       1.0  0.8934585823590261  0.5527303789408937  0.9743424486704146  1.0000
  C   C23       1.0  0.9621856329514283  0.5641970797242342  0.04531799295413119  1.0000
  C   C24       1.0  0.030052821041379074  0.5621690072286534  0.9687594428470931  1.0000
  C   C25       1.0  0.030385623659419547  0.5484938457858997  0.8203357651452898  1.0000
  C   C26       1.0  0.9628234286772644  0.5393703907965526  0.747416466308731  1.0000
  C   C27       1.0  0.8936812095485843  0.5436920383188337  0.8219919446929098  1.0000
  F   F1        1.0  0.09579251359715624  0.5717401009766978  0.03915223246356647  1.0000
  H   H15       1.0  0.7198261646134202  0.44468430704623585  0.08999443672628282  1.0000
  H   H16       1.0  0.9634818518540589  0.5713003724200263  0.1612459259148007  1.0000
  H   H17       1.0  0.08307916224359624  0.5463335647767369  0.7611546549300252  1.0000
  H   H18       1.0  0.9645735181308066  0.5323860929480535  0.6314335579846744  1.0000
  H   H19       1.0  0.7760982172664884  0.4769165403903308  0.5488581883379711  1.0000
  Zn  Zn1       1.0  0.8112282151225949  0.5525313110183632  0.39952505521132475  1.0000
  Zn  Zn2       1.0  0.9759044141345594  0.5438907747929775  0.39680879369918176  1.0000
  C   C28       1.0  0.8936678553382309  0.5396543524533632  0.6617499269818983  1.0000
  C   C29       1.0  0.8934665625927343  0.5567694574416742  0.13458403966978927  1.0000
  C   C30       1.0  0.8921716820783739  0.8117124325244129  0.39324771082035337  1.0000
  C   C31       1.0  0.8949626888428016  0.28470964653354813  0.4030863282334045  1.0000
  O   O2        1.0  0.955963033410491  0.5548396779069571  0.18733175447856798  1.0000
  O   O3        1.0  0.9561568148667202  0.5350250812132591  0.6069402136355024  1.0000
  O   O4        1.0  0.9549477939861242  0.7547154497157869  0.3901227930185054  1.0000
  O   O5        1.0  0.9571719980152757  0.3351493238250123  0.40414906784013094  1.0000
  O   O6        1.0  0.8299605750459637  0.7612727649365703  0.39218478198971574  1.0000
  O   O7        1.0  0.8311695867404343  0.5415841302213604  0.6090021311239828  1.0000
  O   O8        1.0  0.8309758051441393  0.561398695150898  0.18939193658415543  1.0000
  O   O9        1.0  0.8321847698288203  0.34170832959861164  0.40620935812049286  1.0000
