data_image0
_chemical_formula_structural       NC8NC6H8C6FH5C6NH7Zn2C4O8
_chemical_formula_sum              "N3 C30 H20 F1 Zn2 O8"
_cell_length_a       17.457602349358154
_cell_length_b       9.275642734913903
_cell_length_c       9.274774538082514
_cell_angle_alpha    84.97740811334555
_cell_angle_beta     93.23827242343725
_cell_angle_gamma    92.29444944329062

_space_group_name_H-M_alt    "P 1"
_space_group_IT_number       1

loop_
  _space_group_symop_operation_xyz
  'x, y, z'

loop_
  _atom_site_type_symbol
  _atom_site_label
  _atom_site_symmetry_multiplicity
  _atom_site_fract_x
  _atom_site_fract_y
  _atom_site_fract_z
  _atom_site_occupancy
  N   N1        1.0  0.7265733865501436  0.6269967197086477  0.4716472568409835  1.0000
  C   C1        1.0  0.6651720572503231  0.5760796463992155  0.4598944639974125  1.0000
  C   C2        1.0  0.5887862900602325  0.5127450645623786  0.44528459094784134  1.0000
  C   C3        1.0  0.5307739436406719  0.5566486205884436  0.5285018469294116  1.0000
  C   C4        1.0  0.4558416196433798  0.4956613604788722  0.5145727906466839  1.0000
  C   C5        1.0  0.3942680615337655  0.54201478180508  0.6027031547919688  1.0000
  C   C6        1.0  0.3196378390054774  0.5630612611220505  0.5406948401495169  1.0000
  C   C7        1.0  0.2616247299780011  0.606759469534284  0.624032294369409  1.0000
  C   C8        1.0  0.1855522369919994  0.6285000459261376  0.5595605491506772  1.0000
  N   N2        1.0  0.12440282999871148  0.6459723807511788  0.5077254405843019  1.0000
  C   C9        1.0  0.2777530023711818  0.6296764689031242  0.7699430975014641  1.0000
  C   C10       1.0  0.3516023192814127  0.6090584276360691  0.832381874729013  1.0000
  C   C11       1.0  0.4096065718813827  0.5655558892890071  0.7495530536060777  1.0000
  C   C12       1.0  0.440200976158714  0.39003162495753774  0.41583429585002607  1.0000
  C   C13       1.0  0.4982047609332547  0.34643385017510675  0.3330614080544798  1.0000
  C   C14       1.0  0.5723549750193881  0.40754071987410745  0.34760169321460177  1.0000
  H   H1        1.0  0.5438227280619992  0.6395480814479397  0.6024925325654653  1.0000
  H   H2        1.0  0.3068367064138084  0.5474007038393591  0.42729595867062975  1.0000
  H   H3        1.0  0.2332934515420013  0.6634246356277211  0.8353150711698067  1.0000
  H   H4        1.0  0.3638981002728302  0.6264529264897742  0.9453641940086881  1.0000
  H   H5        1.0  0.4661630049479116  0.5484633247558375  0.8008225518842031  1.0000
  H   H6        1.0  0.3833964636999453  0.33976995295463075  0.4040407367091565  1.0000
  H   H7        1.0  0.4856724660226259  0.2647860490925167  0.257737451131306  1.0000
  H   H8        1.0  0.6168109795381946  0.3728215535198036  0.2827988172411635  1.0000
  C   C15       1.0  0.9231199258092614  0.21282220755186954  0.4900921614394449  1.0000
  C   C16       1.0  0.9078439115466707  0.29654128436929006  0.3583242590480611  1.0000
  C   C17       1.0  0.8998104537782445  0.23201206314727796  0.22765838276357608  1.0000
  C   C18       1.0  0.906988240110943  0.08307977929708077  0.22645810762033247  1.0000
  C   C19       1.0  0.9208703638429364  0.9977223016785323  0.3560806484721495  1.0000
  C   C20       1.0  0.9278636216292614  0.06013599857343821  0.48929367881013497  1.0000
  F   F1        1.0  0.885936382464187  0.3145363703598525  0.10156081468495382  1.0000
  H   H9        1.0  0.003476981795949685  0.29299492151286444  0.8197536918468862  1.0000
  H   H10       1.0  0.9039184808792731  0.41299550583663436  0.3561211695741022  1.0000
  H   H11       1.0  0.9010601289446956  0.033214247720524614  0.12498242804085158  1.0000
  H   H12       1.0  0.9243243340888028  0.8817616489203284  0.3524273137819629  1.0000
  H   H13       1.0  0.9789047377788043  0.7632411837770394  0.7128004909694523  1.0000
  C   C21       1.0  0.9241347711686873  0.6401033498048088  0.06574820121560343  1.0000
  C   C22       1.0  0.9790052723966044  0.7278351291417025  0.13733732601668458  1.0000
  C   C23       1.0  0.03725312821979254  0.8038469397781103  0.061748541420796554  1.0000
  C   C24       1.0  0.04110077698940273  0.7924815435167751  0.9131368111671669  1.0000
  C   C25       1.0  0.9864943522593691  0.7079396663617685  0.8398644637207706  1.0000
  C   C26       1.0  0.9268487516942565  0.6328548209619715  0.9136376532038208  1.0000
  N   N3        1.0  0.09300376783613973  0.8914200404645221  0.1364230199942147  1.0000
  H   H14       1.0  0.8078116760137631  0.352604987862712  0.1815284161686681  1.0000
  H   H15       1.0  0.9776617807353787  0.7346116200728803  0.253225695497721  1.0000
  H   H16       1.0  0.08606792814713726  0.8503521989928398  0.8536031726534761  1.0000
  H   H17       1.0  0.9898949645480485  0.7040898607034867  0.7240056265477639  1.0000
  H   H18       1.0  0.8461680640467656  0.44349415267030334  0.6405082162273072  1.0000
  H   H19       1.0  0.09082525989422163  0.9003609244866475  0.24758226032317965  1.0000
  H   H20       1.0  0.13685657656673267  0.9481033229002842  0.08107865429427208  1.0000
  Zn  Zn1       1.0  0.8413783753937231  0.632468745397258  0.482066980576892  1.0000
  Zn  Zn2       1.0  0.009597798515445843  0.6404884253638148  0.49731754753200574  1.0000
  C   C27       1.0  0.9263018663714224  0.6284774620840439  0.7533736543479168  1.0000
  C   C28       1.0  0.924676155133333  0.644481615381608  0.22601118027803602  1.0000
  C   C29       1.0  0.9269445823243756  0.900024651026563  0.48369133990185365  1.0000
  C   C30       1.0  0.924033372321133  0.37293268970557136  0.49569356812194854  1.0000
  O   O1        1.0  0.9886962076919938  0.6489881339896248  0.2855844166834569  1.0000
  O   O2        1.0  0.9899564562061817  0.6300566101876393  0.7053748308309573  1.0000
  O   O3        1.0  0.9904746016993013  0.8493343455817839  0.4876043744354759  1.0000
  O   O4        1.0  0.988178004508279  0.4297104071047835  0.5033547596197065  1.0000
  O   O5        1.0  0.8627981119958413  0.8432467609212015  0.47602976327732627  1.0000
  O   O6        1.0  0.86227997595692  0.6239707595254855  0.6938001410630932  1.0000
  O   O7        1.0  0.86101972165652  0.6429022478934718  0.2740079912530109  1.0000
  O   O8        1.0  0.8605015187583512  0.4236245097642395  0.49177844243662716  1.0000
