data_image0
_chemical_formula_structural       NC9NC5H8C6NH7C7F3H5Zn2C4O8
_chemical_formula_sum              "N3 C31 H20 F3 Zn2 O8"
_cell_length_a       17.807436237873137
_cell_length_b       9.274771166103582
_cell_length_c       9.272291681409872
_cell_angle_alpha    85.95122569860638
_cell_angle_beta     89.81650948764641
_cell_angle_gamma    88.98784114054227

_space_group_name_H-M_alt    "P 1"
_space_group_IT_number       1

loop_
  _space_group_symop_operation_xyz
  'x, y, z'

loop_
  _atom_site_type_symbol
  _atom_site_label
  _atom_site_symmetry_multiplicity
  _atom_site_fract_x
  _atom_site_fract_y
  _atom_site_fract_z
  _atom_site_occupancy
  N   N1        1.0  0.709734508679437  0.5272682431037732  0.39540787555569357  1.0000
  C   C1        1.0  0.6488882400496454  0.4880894799533506  0.38324641840085616  1.0000
  C   C2        1.0  0.5732021694290398  0.4393554130236548  0.368118886060643  1.0000
  C   C3        1.0  0.5542388576060429  0.35906152333172603  0.25171615719636287  1.0000
  C   C4        1.0  0.480750575874175  0.31161991068493555  0.23693681635201935  1.0000
  C   C5        1.0  0.4251744717892501  0.3440526756453197  0.33852499069262243  1.0000
  C   C6        1.0  0.3470764105904707  0.2937628401207879  0.32290923735107135  1.0000
  C   C7        1.0  0.2855025577575442  0.38478982312391485  0.3515269783036281  1.0000
  C   C8        1.0  0.2118708026693395  0.3371228890996476  0.33676325860310197  1.0000
  C   C9        1.0  0.149264637449821  0.431141767255532  0.3657791773065564  1.0000
  N   N2        1.0  0.0989422305813898  0.5067264510558158  0.3891071820364087  1.0000
  C   C10       1.0  0.19922769151923742  0.19814227388041794  0.29335421154731933  1.0000
  C   C11       1.0  0.2599440556796556  0.10709982991500633  0.264727187493053  1.0000
  C   C12       1.0  0.3334531465245897  0.15432675014631725  0.2792669296136838  1.0000
  C   C13       1.0  0.4448330931292973  0.4248975822392693  0.455170011063055  1.0000
  C   C14       1.0  0.5183724433503454  0.4721263076057205  0.46977698355334385  1.0000
  H   H1        1.0  0.5961970337036256  0.3334143389732991  0.1721614383004204  1.0000
  H   H2        1.0  0.4671658765065309  0.25122564455785024  0.14500808765602047  1.0000
  H   H3        1.0  0.294709699861692  0.49328741510228835  0.3833724567493131  1.0000
  H   H4        1.0  0.1425126948034463  0.16024861483357045  0.2816665278970616  1.0000
  H   H5        1.0  0.2500384823564186  0.9995014861224479  0.23154746767313727  1.0000
  H   H6        1.0  0.3796170742342345  0.08114367775115205  0.25826354560737474  1.0000
  H   H7        1.0  0.4035939757330064  0.4499584850952505  0.5361628083879868  1.0000
  H   H8        1.0  0.5324884902043262  0.5338660222414839  0.560546867825022  1.0000
  C   C15       1.0  0.9020392499610431  0.09352903053923223  0.39308057307880295  1.0000
  C   C16       1.0  0.8842701290171897  0.17664804518991728  0.2644461532107443  1.0000
  C   C17       1.0  0.873509799410873  0.1110318561560093  0.134880317612025  1.0000
  C   C18       1.0  0.8805544093484735  0.9609090701659126  0.1330086028919646  1.0000
  C   C19       1.0  0.8969280908007655  0.8765287870539983  0.25989460032997136  1.0000
  C   C20       1.0  0.906644660441836  0.9404543673352547  0.39144693388967267  1.0000
  N   N3        1.0  0.8561967358726272  0.19721390625258994  0.00482158661855614  1.0000
  H   H9        1.0  0.9877519849338753  0.17142505849575884  0.707204998330877  1.0000
  H   H10       1.0  0.8804813558521124  0.293435875147505  0.26395370398547957  1.0000
  H   H11       1.0  0.8726308704354551  0.9089669894711496  0.03331501017945593  1.0000
  H   H12       1.0  0.9002221772670849  0.7601548039155792  0.25571242074194966  1.0000
  H   H13       1.0  0.9613398605303891  0.6423787622006065  0.6052213632235639  1.0000
  H   H14       1.0  0.8510222009006527  0.3095605015157661  0.004858529087934826  1.0000
  H   H15       1.0  0.8483528631652482  0.14930556460032385  0.9074975922323105  1.0000
  C   C21       1.0  0.9027410719498662  0.5133734930776392  0.9689357587019716  1.0000
  C   C22       1.0  0.9527558492397808  0.41995192211666654  0.048512549265002924  1.0000
  C   C23       1.0  0.006921782141389166  0.33923668049334577  0.9789819565604119  1.0000
  C   C24       1.0  0.013255993984017778  0.35147814059712124  0.8279639317934215  1.0000
  C   C25       1.0  0.9617188333993364  0.4402012900673382  0.7472503834798809  1.0000
  C   C26       1.0  0.9059428153687861  0.5206099068557903  0.8155916794895015  1.0000
  C   C27       1.0  0.07043776081019426  0.2611007997488075  0.7526136952642624  1.0000
  F   F1        1.0  0.13318788161436834  0.23343318500945887  0.838561839579747  1.0000
  F   F2        1.0  0.09330835573129637  0.3320800025199997  0.6240381789696294  1.0000
  F   F3        1.0  0.03878159451055718  0.1313260618944454  0.7234090108961491  1.0000
  H   H16       1.0  0.7985686375949786  0.81035499049953  0.0501763373058266  1.0000
  H   H17       1.0  0.9509757055552417  0.41143397981968666  0.1656039036186916  1.0000
  H   H18       1.0  0.04437738913051992  0.26800907389138406  0.04371640027610635  1.0000
  H   H19       1.0  0.9638809273023753  0.4439347769735913  0.6302205084484425  1.0000
  H   H20       1.0  0.7365001269545547  0.6677358881335618  0.7047380515920039  1.0000
  Zn  Zn1       1.0  0.8220514592824059  0.5213365490848283  0.3935979760773154  1.0000
  Zn  Zn2       1.0  0.9866252426786073  0.5126464915869489  0.39092895546585815  1.0000
  C   C28       1.0  0.905304711229473  0.5134973255660982  0.6555667207142453  1.0000
  C   C29       1.0  0.903373798301294  0.5204874409264815  0.12896031966417998  1.0000
  C   C30       1.0  0.90574854106137  0.7803185254926879  0.38601120867619176  1.0000
  C   C31       1.0  0.9029299031813058  0.253664512077864  0.3985159128113802  1.0000
  O   O1        1.0  0.9660410059501323  0.5195708240973806  0.18165315688850803  1.0000
  O   O2        1.0  0.9675451897152918  0.5078172984077636  0.6008477457237842  1.0000
  O   O3        1.0  0.967902751664222  0.7232788490310189  0.38317977336508746  1.0000
  O   O4        1.0  0.9656833874906615  0.3041092858313925  0.3993210220500145  1.0000
  O   O5        1.0  0.842993258309376  0.7298737578073802  0.3852059103963785  1.0000
  O   O6        1.0  0.8426357054875615  0.514413939073147  0.6028738025491489  1.0000
  O   O7        1.0  0.8411315149447791  0.5261673996947767  0.18367748062049793  1.0000
  O   O8        1.0  0.8407738968348732  0.31070585203851686  0.40134545388241527  1.0000
