data_image0
_chemical_formula_structural       NC8NC6H8C6NCH9C8H10Zn2C4O8
_chemical_formula_sum              "N3 C33 H27 Zn2 O8"
_cell_length_a       17.457602349358154
_cell_length_b       9.273386996610926
_cell_length_c       9.275657083861812
_cell_angle_alpha    85.7544876649096
_cell_angle_beta     92.37146316173272
_cell_angle_gamma    91.0935878010965

_space_group_name_H-M_alt    "P 1"
_space_group_IT_number       1

loop_
  _space_group_symop_operation_xyz
  'x, y, z'

loop_
  _atom_site_type_symbol
  _atom_site_label
  _atom_site_symmetry_multiplicity
  _atom_site_fract_x
  _atom_site_fract_y
  _atom_site_fract_z
  _atom_site_occupancy
  N   N1        1.0  0.720532916647368  0.6059729580797206  0.4725853687144945  1.0000
  C   C1        1.0  0.6597931981680256  0.5549124775374965  0.46091717665986787  1.0000
  C   C2        1.0  0.584230320904266  0.49139963788113405  0.4464125190812134  1.0000
  C   C3        1.0  0.5250678450675224  0.5364097695740966  0.5294170470027975  1.0000
  C   C4        1.0  0.4509268076747763  0.4752527323374489  0.515589040161333  1.0000
  C   C5        1.0  0.3881368042209297  0.52277810198054  0.6034942903500149  1.0000
  C   C6        1.0  0.3137634479373703  0.5429845513757694  0.5415788958395715  1.0000
  C   C7        1.0  0.2546015484817475  0.5877910111639286  0.6247036426437749  1.0000
  C   C8        1.0  0.17879771182473264  0.6086582263012608  0.5603286823147402  1.0000
  N   N2        1.0  0.1178643822662632  0.6254283830667131  0.50857139711431  1.0000
  C   C9        1.0  0.2693167214503951  0.612663814786395  0.7703074138861568  1.0000
  C   C10       1.0  0.3429009752363258  0.5928914695191374  0.8326519249485187  1.0000
  C   C11       1.0  0.4020477998093738  0.5482874642333146  0.7500345996900406  1.0000
  C   C12       1.0  0.4372484570796645  0.36832544298290504  0.41716826963336984  1.0000
  C   C13       1.0  0.49639543333775926  0.32362698094776743  0.33460688691791485  1.0000
  C   C14       1.0  0.569748177713138  0.38491181395466323  0.349044807657789  1.0000
  H   H1        1.0  0.5366043622843358  0.6202804872854122  0.6031650739104162  1.0000
  H   H2        1.0  0.3020365457226372  0.5258033641260544  0.4284160100236274  1.0000
  H   H3        1.0  0.22396194500204422  0.6472814740165878  0.8355131809483025  1.0000
  H   H4        1.0  0.35410647351012775  0.6118004966242718  0.9453969297666616  1.0000
  H   H5        1.0  0.4583884020758807  0.5318893613378055  0.8012268930539019  1.0000
  H   H6        1.0  0.3810985624302172  0.31791962676588814  0.4054585896190175  1.0000
  H   H7        1.0  0.48537200784041007  0.24098963103284765  0.25952661165453406  1.0000
  H   H8        1.0  0.6151057335389852  0.3493310886456493  0.2844082345075438  1.0000
  C   C15       1.0  0.9215566552055394  0.19216576589548096  0.49150031545370965  1.0000
  C   C16       1.0  0.9356235945686364  0.2756605373103389  0.36243421421751676  1.0000
  C   C17       1.0  0.9424718114235003  0.21082331295188417  0.2327062613252624  1.0000
  C   C18       1.0  0.9353630007149697  0.0601574014215458  0.22872166386141246  1.0000
  C   C19       1.0  0.9226492628771658  0.9757636492308759  0.357457551179875  1.0000
  C   C20       1.0  0.9168479583210124  0.03922484619250732  0.48966962598846875  1.0000
  N   N3        1.0  0.9415755883859103  0.990238802959098  0.0962449751469614  1.0000
  C   C21       1.0  0.9550006052041816  0.06806996105891838  0.9567889636356459  1.0000
  H   H9        1.0  0.9361215878906033  0.45623952513029353  0.7294859393210844  1.0000
  H   H10       1.0  0.9395422679049682  0.3924892231679089  0.36102056823564665  1.0000
  H   H11       1.0  0.9525949684367019  0.2794180632880543  0.13570513755986813  1.0000
  H   H12       1.0  0.9190410258649178  0.859174218759232  0.3548566658972194  1.0000
  H   H13       1.0  0.9434469308004757  0.9109691008505105  0.8431824840186493  1.0000
  H   H14       1.0  0.9361413681758852  0.877620950144741  0.09874204953055887  1.0000
  H   H15       1.0  0.9075880281908715  0.14419328472021098  0.9274485600834481  1.0000
  H   H16       1.0  0.010492165547527854  0.12834005673664506  0.9620474101978078  1.0000
  H   H17       1.0  0.9573294812641059  0.9903089684317934  0.8716596451960252  1.0000
  C   C22       1.0  0.9211673281350558  0.6136167443807092  0.06744665200935107  1.0000
  C   C23       1.0  0.9602711510973915  0.725505294121332  0.13574637097300024  1.0000
  C   C24       1.0  0.992570883409774  0.8432353113932585  0.054740648415296356  1.0000
  C   C25       1.0  0.9869101408919205  0.8481485250114946  0.9035804701452115  1.0000
  C   C26       1.0  0.9494586593750418  0.7369868015943308  0.8339767282010206  1.0000
  C   C27       1.0  0.9172372978223904  0.6177738700540247  0.9137232896885448  1.0000
  C   C28       1.0  0.03518755801432749  0.9610110005761643  0.12960856983380964  1.0000
  C   C29       1.0  0.11962969837674198  0.9239790063662201  0.15516927569887873  1.0000
  H   H18       1.0  0.8880320518171022  0.3818451575056847  0.36265410743956794  1.0000
  H   H19       1.0  0.9642500958202649  0.7230254654109536  0.2528361999332338  1.0000
  H   H20       1.0  0.012267222545911505  0.9375652350560817  0.8393446731541214  1.0000
  H   H21       1.0  0.9474544597238355  0.7425108196886394  0.716811571013094  1.0000
  H   H22       1.0  0.8276382802136825  0.4471182994397007  0.6380495434804883  1.0000
  H   H23       1.0  0.0304067513407833  0.06551009047979806  0.06316168589591764  1.0000
  H   H24       1.0  0.009596590204624444  0.9760968612924452  0.2351402294184357  1.0000
  H   H25       1.0  0.12565798802083283  0.8216448649865267  0.22463353302039657  1.0000
  H   H26       1.0  0.14668405346683255  0.9120261889849057  0.05046676191491817  1.0000
  H   H27       1.0  0.14998039605024793  0.012066723140974567  0.21034119447738475  1.0000
  Zn  Zn1       1.0  0.8351941776895256  0.6115835465708599  0.4829784872664469  1.0000
  Zn  Zn2       1.0  0.0032031179238485308  0.6198060274263593  0.4981901011734098  1.0000
  C   C30       1.0  0.9180103886346163  0.6112423052819522  0.7537711246165033  1.0000
  C   C31       1.0  0.9203887308584106  0.62014917899332  0.2273977674278529  1.0000
  C   C32       1.0  0.9177607341366314  0.8790842645342527  0.48427330397568724  1.0000
  C   C33       1.0  0.9206383373024216  0.35230548449469135  0.496895663445065  1.0000
  O   O1        1.0  0.9838859787100792  0.6254556201807278  0.28685156473452667  1.0000
  O   O2        1.0  0.9820280469330883  0.612175446725205  0.7058621778524967  1.0000
  O   O3        1.0  0.981825581315472  0.8284611814409646  0.4882406998818267  1.0000
  O   O4        1.0  0.9840883874419978  0.4091698924458711  0.5044729294525869  1.0000
  O   O5        1.0  0.8543088508381971  0.8222196787469522  0.4766956537887088  1.0000
  O   O6        1.0  0.8545113071766081  0.6059356764731236  0.6943170511844232  1.0000
  O   O7        1.0  0.8563692473291349  0.6192157911613516  0.2753047057667619  1.0000
  O   O8        1.0  0.8565716556135721  0.4029300536411955  0.49292617853887233  1.0000
