data_image0
_chemical_formula_structural       NC9NC5H8C7H8C7NH5Zn2C4O8
_chemical_formula_sum              "N3 C32 H21 Zn2 O8"
_cell_length_a       17.807436237873137
_cell_length_b       9.274341958901593
_cell_length_c       10.302823150593486
_cell_angle_alpha    85.52847871026538
_cell_angle_beta     89.3921433004221
_cell_angle_gamma    87.76967926577302

_space_group_name_H-M_alt    "P 1"
_space_group_IT_number       1

loop_
  _space_group_symop_operation_xyz
  'x, y, z'

loop_
  _atom_site_type_symbol
  _atom_site_label
  _atom_site_symmetry_multiplicity
  _atom_site_fract_x
  _atom_site_fract_y
  _atom_site_fract_z
  _atom_site_occupancy
  N   N1        1.0  0.6987180426101983  0.5418062470105329  0.5569237945595695  1.0000
  C   C1        1.0  0.6383509777637545  0.5027105475815388  0.5459201159505076  1.0000
  C   C2        1.0  0.5632609839485354  0.45407980293563344  0.5322327345016198  1.0000
  C   C3        1.0  0.5456170379107738  0.3747384373639886  0.4272970324891239  1.0000
  C   C4        1.0  0.47270922010191346  0.3273978600642766  0.4139249177713751  1.0000
  C   C5        1.0  0.4163989950144292  0.35897921320576787  0.5054562434752985  1.0000
  C   C6        1.0  0.3389160590826044  0.3087960436702484  0.49132714229032093  1.0000
  C   C7        1.0  0.2762275008036565  0.3996269418395031  0.5172189302826309  1.0000
  C   C8        1.0  0.2031786501287637  0.35206078916860384  0.5038605890773344  1.0000
  C   C9        1.0  0.1394231409923829  0.445881776240848  0.5301148832558733  1.0000
  N   N2        1.0  0.088176736541912  0.521307358928679  0.5512226122999193  1.0000
  C   C10       1.0  0.1922364291007704  0.21337712283869847  0.4645852410026772  1.0000
  C   C11       1.0  0.2540677043451765  0.12253083483064486  0.4386850725570699  1.0000
  C   C12       1.0  0.3269995948899806  0.16965865394400148  0.4518411271911953  1.0000
  C   C13       1.0  0.4347312482693558  0.4388698181483557  0.6106108704981001  1.0000
  C   C14       1.0  0.5076931303046813  0.48599886843301876  0.6238274742376713  1.0000
  H   H1        1.0  0.5881528694826013  0.3497578692128134  0.3556176073659516  1.0000
  H   H2        1.0  0.4601330306658127  0.26775745974498566  0.3310561877916045  1.0000
  H   H3        1.0  0.2841143446225552  0.5079101825807149  0.5460404221910182  1.0000
  H   H4        1.0  0.1359846417657433  0.1755631627193499  0.4540099169391474  1.0000
  H   H5        1.0  0.2454773787893693  0.01515873274020274  0.40866315728202474  1.0000
  H   H6        1.0  0.374052323418494  0.09661608676947342  0.4328300603634885  1.0000
  H   H7        1.0  0.3929156732919113  0.4632514936009733  0.6835846425055736  1.0000
  H   H8        1.0  0.5207900231200772  0.5469953462395061  0.705654324466596  1.0000
  C   C15       1.0  0.8958401271205819  0.10785515429458492  0.5542606154795737  1.0000
  C   C16       1.0  0.9047233008737517  0.19073247404648974  0.43525705578194396  1.0000
  C   C17       1.0  0.9061300842024108  0.12570422819046856  0.31762320786480114  1.0000
  C   C18       1.0  0.8978627349850952  0.9765091020456997  0.31617629668515645  1.0000
  C   C19       1.0  0.8913205122217491  0.8919006906758807  0.43418492818943877  1.0000
  C   C20       1.0  0.8910618740273029  0.9552469900437179  0.5538969917898204  1.0000
  C   C21       1.0  0.9010377549479983  0.9063505459245165  0.18973952791725868  1.0000
  H   H9        1.0  0.8333100781832029  0.18930409590671404  0.8559681989844161  1.0000
  H   H10       1.0  0.908982301956884  0.30711603909925267  0.43296316791168254  1.0000
  H   H11       1.0  0.9128749861896068  0.1922254947793045  0.22739015184707623  1.0000
  H   H12       1.0  0.8881433511218987  0.775563979572226  0.4325739678594771  1.0000
  H   H13       1.0  0.8519519668271389  0.6597117324290913  0.7586798497408251  1.0000
  H   H14       1.0  0.9601351847276358  0.8736930211969326  0.16760769628410932  1.0000
  H   H15       1.0  0.8791237979560992  0.9823212445157247  0.10903975337235816  1.0000
  H   H16       1.0  0.8663671594026754  0.8090033906361427  0.19544012232886976  1.0000
  C   C22       1.0  0.8934510190334962  0.5315510986767402  0.1728307100265598  1.0000
  C   C23       1.0  0.8146425683848698  0.5461537451674752  0.17214954975471675  1.0000
  C   C24       1.0  0.7754346219922944  0.5534185810029764  0.0547081584006095  1.0000
  C   C25       1.0  0.8146425543034129  0.546153651722368  0.9368485561605118  1.0000
  C   C26       1.0  0.893451018627054  0.5315510912045598  0.9353268766512715  1.0000
  C   C27       1.0  0.9324434780169316  0.5243260319819221  0.05387083412502025  1.0000
  C   C28       1.0  0.6946444342011888  0.5683881992145436  0.055138964565944804  1.0000
  N   N3        1.0  0.6297155195866966  0.580419057579739  0.05548515720362701  1.0000
  H   H17       1.0  0.9233020196082147  0.5260202799780633  0.5004109456403256  1.0000
  H   H18       1.0  0.7835615186932295  0.551912841687326  0.2627395472482488  1.0000
  H   H19       1.0  0.7835615490966965  0.5519127338842431  0.8465900103598045  1.0000
  H   H20       1.0  0.9932177163057523  0.5130650215919774  0.05354677739374769  1.0000
  H   H21       1.0  0.9233019957359185  0.5260200496879093  0.6074282458006959  1.0000
  Zn  Zn1       1.0  0.8111074294237933  0.5358868607717351  0.5552860665764923  1.0000
  Zn  Zn2       1.0  0.97578739784971  0.5272149839107547  0.5528710185593593  1.0000
  C   C29       1.0  0.8934817371162149  0.5258031913820125  0.7912012568061442  1.0000
  C   C30       1.0  0.8934148781920148  0.5373003791128093  0.31695592860225785  1.0000
  C   C31       1.0  0.8919612118646147  0.7950721115815982  0.5487922240435095  1.0000
  C   C32       1.0  0.8949353570246255  0.26802972837367744  0.5593650321495951  1.0000
  O   O1        1.0  0.9558979742702095  0.5359326634248747  0.3644091731213408  1.0000
  O   O2        1.0  0.9559869327758459  0.5205880647127945  0.7419146734619964  1.0000
  O   O3        1.0  0.9547582469404272  0.7380261675075086  0.5461676761332319  1.0000
  O   O4        1.0  0.9571266038533125  0.31849457391074076  0.5601560739259532  1.0000
  O   O5        1.0  0.829768167222991  0.7446072737326053  0.5480010120272059  1.0000
  O   O6        1.0  0.8309968432801993  0.5271709044382937  0.7437479393885755  1.0000
  O   O7        1.0  0.8309078851080969  0.5425154528683696  0.3662408781628077  1.0000
  O   O8        1.0  0.8321365147463156  0.32507735303451235  0.5619878763088799  1.0000
