data_image0
_chemical_formula_structural       NC9NC5H8C6NH7C6BrH5Zn2C4O8
_chemical_formula_sum              "N3 C30 H20 Br1 Zn2 O8"
_cell_length_a       17.807436237873137
_cell_length_b       9.274771166103582
_cell_length_c       10.302972455390005
_cell_angle_alpha    85.45577943417274
_cell_angle_beta     89.39215201277248
_cell_angle_gamma    88.98784114054227

_space_group_name_H-M_alt    "P 1"
_space_group_IT_number       1

loop_
  _space_group_symop_operation_xyz
  'x, y, z'

loop_
  _atom_site_type_symbol
  _atom_site_label
  _atom_site_symmetry_multiplicity
  _atom_site_fract_x
  _atom_site_fract_y
  _atom_site_fract_z
  _atom_site_occupancy
  N   N1        1.0  0.7158024229819938  0.540982668339792  0.5549294542868763  1.0000
  C   C1        1.0  0.6550021440331221  0.5019078489844129  0.5439770363735117  1.0000
  C   C2        1.0  0.5793732795825153  0.45330307685064986  0.5303534175851949  1.0000
  C   C3        1.0  0.5608501555010459  0.3740040795665538  0.42552294237601607  1.0000
  C   C4        1.0  0.4874177632206625  0.32668878572811266  0.4122128993975791  1.0000
  C   C5        1.0  0.431457494009497  0.35825327805981266  0.5037016187400192  1.0000
  C   C6        1.0  0.3534184852338244  0.3080969101489157  0.48963831576150585  1.0000
  C   C7        1.0  0.2917364117528046  0.39887929774194486  0.5154110052228291  1.0000
  C   C8        1.0  0.2181604870432768  0.35133854901234196  0.5021150304019486  1.0000
  C   C9        1.0  0.15544459542948  0.4451094285387609  0.5282463125118424  1.0000
  N   N2        1.0  0.105033971542285  0.5204947282264722  0.5492551483473296  1.0000
  C   C10       1.0  0.2056815312404915  0.21272895027845062  0.4630215222373668  1.0000
  C   C11       1.0  0.2665061511539153  0.12193118106567025  0.43724047255998055  1.0000
  C   C12       1.0  0.3399602586122147  0.16903383033539088  0.45033473667901003  1.0000
  C   C13       1.0  0.4506750113601595  0.43810122138399765  0.6087502978863129  1.0000
  C   C14       1.0  0.5241591239566794  0.48520510117188076  0.6219051086236946  1.0000
  H   H1        1.0  0.6031091751645857  0.34903684821789716  0.3538772080503376  1.0000
  H   H2        1.0  0.47418070088748526  0.2670802330901676  0.3294233255739838  1.0000
  H   H3        1.0  0.3008231272194358  0.507104706885444  0.5440905445368698  1.0000
  H   H4        1.0  0.1490107325870646  0.17493518569148603  0.45249577732480906  1.0000
  H   H5        1.0  0.2567260500260001  0.01461642384934514  0.4073593363532457  1.0000
  H   H6        1.0  0.3862036125712299  0.09603027355373861  0.43141941787278637  1.0000
  H   H7        1.0  0.4091296121706295  0.4624698799950726  0.6816911431305237  1.0000
  H   H8        1.0  0.5379319160541256  0.5461690069447174  0.7036510453016629  1.0000
  C   C15       1.0  0.9081159651742929  0.10726334719521691  0.5528335221125336  1.0000
  C   C16       1.0  0.8908332872487166  0.1914817983364494  0.43698737748521777  1.0000
  C   C17       1.0  0.8805629228958591  0.12697300658960997  0.3203024144331532  1.0000
  C   C18       1.0  0.8876146108966928  0.9768662181176367  0.3186167774599107  1.0000
  C   C19       1.0  0.9035084611526834  0.8914014422559128  0.4328883202200964  1.0000
  C   C20       1.0  0.912727553413564  0.9542026466813089  0.5513622922351264  1.0000
  N   N3        1.0  0.8637416885408341  0.2142666667429327  0.20317355750536792  1.0000
  H   H9        1.0  0.9926408094278998  0.18247455831929216  0.83572906154941  1.0000
  H   H10       1.0  0.8870463763261692  0.30827383725030644  0.43654388542275036  1.0000
  H   H11       1.0  0.8800680725733432  0.9257762170903087  0.2288342886700827  1.0000
  H   H12       1.0  0.9068183629199452  0.7750632041447876  0.42912191475950245  1.0000
  H   H13       1.0  0.9666143456223109  0.6542999146501683  0.7438841964318212  1.0000
  H   H14       1.0  0.8585670138674769  0.32661294625936765  0.2032068273149168  1.0000
  H   H15       1.0  0.8562658555667441  0.16719015183613495  0.11552509186964177  1.0000
  C   C21       1.0  0.9104217302127579  0.5307329692102296  0.1708553427137145  1.0000
  C   C22       1.0  0.9315245021784758  0.3836738526465424  0.1797406408527369  1.0000
  C   C23       1.0  0.9419926575015397  0.31072458871520103  0.06721039264638118  1.0000
  C   C24       1.0  0.9315246284576869  0.38367378969823696  0.9446582485038073  1.0000
  C   C25       1.0  0.9104217657688644  0.5307329712862283  0.9333404242633265  1.0000
  C   C26       1.0  0.8999722468840049  0.6035523478275198  0.047095892292834174  1.0000
  Br  Br1       1.0  0.970695908324799  0.11069878037897896  0.08095032409335867  1.0000
  H   H16       1.0  0.9024791488531466  0.5860848780345933  0.4948125398330874  1.0000
  H   H17       1.0  0.9399250175104936  0.3251323153110064  0.2737611901935715  1.0000
  H   H18       1.0  0.9399253145457173  0.32513234799964774  0.8586802831539311  1.0000
  H   H19       1.0  0.8836969412196894  0.716969979742331  0.0393051535181288  1.0000
  H   H20       1.0  0.9024780903626488  0.5860843921184051  0.6017789321748959  1.0000
  Zn  Zn1       1.0  0.828126217888112  0.5350664435050112  0.553299487152511  1.0000
  Zn  Zn2       1.0  0.9927100944339031  0.5263991980869567  0.5508958089761307  1.0000
  C   C27       1.0  0.9103888106712776  0.5249881769872753  0.7892244371789057  1.0000
  C   C28       1.0  0.9104493088089209  0.5364791894952816  0.31497095696505917  1.0000
  C   C29       1.0  0.9118519897333692  0.7941132639020201  0.5464669632098065  1.0000
  C   C30       1.0  0.908986064152016  0.26735237296527115  0.5577285039797861  1.0000
  O   O1        1.0  0.9729172535947768  0.5351122077631143  0.36242530120802585  1.0000
  O   O2        1.0  0.9728362140484177  0.5197758321016293  0.7399453849850579  1.0000
  O   O3        1.0  0.9740169076720977  0.7370977876762197  0.5439170168976959  1.0000
  O   O4        1.0  0.9717365038659327  0.3177902654620042  0.5584535727552764  1.0000
  O   O5        1.0  0.8490997522916915  0.743675379089239  0.5457417241867906  1.0000
  O   O6        1.0  0.8479190680984335  0.5263551560891901  0.741770020041951  1.0000
  O   O7        1.0  0.8480001074210233  0.5416914814954115  0.36424837546815847  1.0000
  O   O8        1.0  0.8468193576329521  0.3243695288800965  0.5602767443689471  1.0000
