data_image0
_chemical_formula_structural       NC9NC5H8C7OH6C7F3H5Zn2C4O8
_chemical_formula_sum              "N2 C32 H19 O9 F3 Zn2"
_cell_length_a       17.807436237873137
_cell_length_b       9.274078303013075
_cell_length_c       9.272291681409872
_cell_angle_alpha    86.24016049207208
_cell_angle_beta     89.81650948764641
_cell_angle_gamma    87.81002060722456

_space_group_name_H-M_alt    "P 1"
_space_group_IT_number       1

loop_
  _space_group_symop_operation_xyz
  'x, y, z'

loop_
  _atom_site_type_symbol
  _atom_site_label
  _atom_site_symmetry_multiplicity
  _atom_site_fract_x
  _atom_site_fract_y
  _atom_site_fract_z
  _atom_site_occupancy
  N   N1        1.0  0.6933691766710308  0.5277317912984854  0.40317158717502566  1.0000
  C   C1        1.0  0.632942725234146  0.4885411368218264  0.39081096879224075  1.0000
  C   C2        1.0  0.557778860970561  0.4397922783917847  0.37543570181642094  1.0000
  C   C3        1.0  0.5396759324947513  0.35947401833284176  0.25862480719136016  1.0000
  C   C4        1.0  0.46669600791984306  0.3120180064644369  0.2436043017703231  1.0000
  C   C5        1.0  0.410772372895986  0.34446061524218274  0.3453573447483158  1.0000
  C   C6        1.0  0.33321318877968586  0.2941555160188378  0.32948594818092114  1.0000
  C   C7        1.0  0.2706639429172139  0.38521012703939483  0.3585664154743191  1.0000
  C   C8        1.0  0.1975429594008351  0.33752872540518797  0.3435603857989653  1.0000
  C   C9        1.0  0.1339293417164162  0.431576139662333  0.3730542398356993  1.0000
  N   N2        1.0  0.0827970126547308  0.5071837645169353  0.39676647156071976  1.0000
  C   C10       1.0  0.1863890849457702  0.19850592754150442  0.29944484502663204  1.0000
  C   C11       1.0  0.24808100780655318  0.10743585086603469  0.27035501603730716  1.0000
  C   C12       1.0  0.3210840420155232  0.15467710515667954  0.2851348313677362  1.0000
  C   C13       1.0  0.4295647065072254  0.4253300594448153  0.4624133319174897  1.0000
  C   C14       1.0  0.5025979807495148  0.47257311941848545  0.47726038679379634  1.0000
  H   H1        1.0  0.58190892913483  0.3338190496797677  0.17893971346172055  1.0000
  H   H2        1.0  0.45375845892741096  0.25160540979642665  0.1513685650108818  1.0000
  H   H3        1.0  0.2787084869493751  0.4937406496199199  0.3909634303114109  1.0000
  H   H4        1.0  0.1300801349831381  0.16060076721626548  0.2875645328434562  1.0000
  H   H5        1.0  0.23932839672663583  0.9998048494062695  0.23662833106199344  1.0000
  H   H6        1.0  0.3680321576257218  0.08147182063129677  0.26375942871175084  1.0000
  H   H7        1.0  0.3880570508253253  0.45039856865045347  0.5435335237741763  1.0000
  H   H8        1.0  0.516052460172443  0.5343315729584259  0.5683441185785469  1.0000
  C   C15       1.0  0.8903216190036702  0.09386093255465133  0.39863941585498863  1.0000
  C   C16       1.0  0.875312175315951  0.17697927632106736  0.26874027397501  1.0000
  C   C17       1.0  0.8538284620936443  0.11191577701617317  0.14387218341994057  1.0000
  C   C18       1.0  0.8471542260219894  0.9616666519839929  0.14882663577468302  1.0000
  C   C19       1.0  0.862999361708637  0.8774221543119547  0.27602884442318376  1.0000
  C   C20       1.0  0.8858518649565988  0.9410432645060346  0.40131104335591083  1.0000
  C   C21       1.0  0.8378527489934277  0.20250325585280748  0.00995696919973299  1.0000
  O   O1        1.0  0.8181192487940844  0.14724935861168342  0.8961275887950526  1.0000
  H   H9        1.0  0.889320062198178  0.1736452153702659  0.7536239458468215  1.0000
  H   H10       1.0  0.8786617797032332  0.2936409605536272  0.2655756278283421  1.0000
  H   H11       1.0  0.8303658959982733  0.9088687443950666  0.05392438868693805  1.0000
  H   H12       1.0  0.8590796717269626  0.7611850849167366  0.2753220857406793  1.0000
  H   H13       1.0  0.8884649284056129  0.6440997681061719  0.639700822231891  1.0000
  H   H14       1.0  0.843034505203808  0.31853118098389865  0.008356801804276337  1.0000
  C   C22       1.0  0.886524628126871  0.513832824012993  0.9766288377832981  1.0000
  C   C23       1.0  0.9375404574797921  0.420382898242208  0.055730729362970965  1.0000
  C   C24       1.0  0.9925712886946266  0.33964315836541403  0.985789828998231  1.0000
  C   C25       1.0  0.9987743280600097  0.3518883339309353  0.8348340324393333  1.0000
  C   C26       1.0  0.9462864610067903  0.4406384121714919  0.7545714991649368  1.0000
  C   C27       1.0  0.889648830279177  0.5210714341483054  0.8233215441387771  1.0000
  C   C28       1.0  0.056924526722373914  0.26148356224106295  0.75902437195866  1.0000
  F   F1        1.0  0.1199711178441456  0.23380754997696873  0.844831870789633  1.0000
  F   F2        1.0  0.07903454914791874  0.33248430823588726  0.630809671168294  1.0000
  F   F3        1.0  0.02665895220704151  0.13166943586034163  0.7291599910082827  1.0000
  H   H15       1.0  0.7791699100915569  0.8109044596523285  0.05937909139851594  1.0000
  H   H16       1.0  0.9358515871876958  0.4118623706254638  0.17277878362980026  1.0000
  H   H17       1.0  0.030790129932533716  0.2683939331456344  0.05016219447423764  1.0000
  H   H18       1.0  0.9484085490018652  0.44437303224549307  0.6375606029316265  1.0000
  H   H19       1.0  0.7186296240911063  0.6682420703079712  0.7132158160915574  1.0000
  Zn  Zn1       1.0  0.8057496879107315  0.5217982969238617  0.40133153453790515  1.0000
  Zn  Zn2       1.0  0.9704165889873194  0.5131056018667437  0.39861833890960074  1.0000
  C   C29       1.0  0.8890869404884356  0.5139566940864195  0.6632604292853388  1.0000
  C   C30       1.0  0.8870811254864617  0.5209489310488005  0.13668956177045222  1.0000
  C   C31       1.0  0.886671667118654  0.7808588781401231  0.3950612754767635  1.0000
  C   C32       1.0  0.8894963520942903  0.254045017548316  0.4048887878993763  1.0000
  O   O2        1.0  0.9497581550764033  0.5200320360131185  0.1893777394670526  1.0000
  O   O3        1.0  0.9513882828930079  0.5082749429569704  0.6085125804588329  1.0000
  O   O4        1.0  0.9494370822346376  0.7238018893044362  0.3919398848150466  1.0000
  O   O5        1.0  0.9517092990918198  0.3045051020266707  0.405950327976466  1.0000
  O   O6        1.0  0.8244569216134632  0.7303987997318304  0.39399954638934265  1.0000
  O   O7        1.0  0.826408112841018  0.5148735857990403  0.6105721706310829  1.0000
  O   O8        1.0  0.8247779789440218  0.5266306137674528  0.19143559621516104  1.0000
  O   O9        1.0  0.8267291234096239  0.31110367038788267  0.4080082927772506  1.0000
