data_image0
_chemical_formula_structural       NC8NC6H8C6ClH5C6ClH5Zn2C4O8
_chemical_formula_sum              "N2 C30 H18 Cl2 Zn2 O8"
_cell_length_a       17.457602349358154
_cell_length_b       10.30297070629231
_cell_length_c       10.302974078461048
_cell_angle_alpha    85.56070090075097
_cell_angle_beta     92.87591007631781
_cell_angle_gamma    91.68807172504815

_space_group_name_H-M_alt    "P 1"
_space_group_IT_number       1

loop_
  _space_group_symop_operation_xyz
  'x, y, z'

loop_
  _atom_site_type_symbol
  _atom_site_label
  _atom_site_symmetry_multiplicity
  _atom_site_fract_x
  _atom_site_fract_y
  _atom_site_fract_z
  _atom_site_occupancy
  N   N1        1.0  0.7224250039392439  0.4523639750818491  0.6269597976013517  1.0000
  C   C1        1.0  0.6613470700125398  0.4064536851110787  0.6163475800631146  1.0000
  C   C2        1.0  0.5853635371747673  0.3493469968923122  0.6031555202523688  1.0000
  C   C3        1.0  0.5268349096540456  0.3894956544604957  0.6780284490573458  1.0000
  C   C4        1.0  0.4522894596099767  0.33450654021613824  0.6654506243188045  1.0000
  C   C5        1.0  0.39016993582871945  0.3768976089805436  0.7447438955907266  1.0000
  C   C6        1.0  0.3156232721472745  0.39536014029660027  0.6889988143301671  1.0000
  C   C7        1.0  0.2570946417807893  0.4353249318412422  0.7639796611364533  1.0000
  C   C8        1.0  0.1811098227774687  0.4543931244824011  0.7060198510622644  1.0000
  N   N2        1.0  0.1200309448059781  0.4697175737387631  0.6594203147602946  1.0000
  C   C9        1.0  0.2726205124001453  0.45707025352679165  0.8952139387625413  1.0000
  C   C10       1.0  0.34638247208087064  0.43899658181065493  0.9513464900634236  1.0000
  C   C11       1.0  0.4048994975338975  0.39921178514554523  0.8768232133124747  1.0000
  C   C12       1.0  0.4375612828998841  0.23869157195645663  0.5765674245912886  1.0000
  C   C13       1.0  0.49607819228167693  0.19882150306451885  0.502094366925331  1.0000
  C   C14       1.0  0.5698388766723401  0.25392295523226216  0.5152219597265233  1.0000
  H   H1        1.0  0.5391789515771053  0.46466544135868015  0.7446371436363215  1.0000
  H   H2        1.0  0.3032782702153719  0.3803949485936704  0.5870080493670917  1.0000
  H   H3        1.0  0.2277595414626947  0.4879428718259915  0.954030332561989  1.0000
  H   H4        1.0  0.3582137630162318  0.4555189293396862  0.05296411789792377  1.0000
  H   H5        1.0  0.46138511182824027  0.3842247369553091  0.9229144287058848  1.0000
  H   H6        1.0  0.3810766270091939  0.19337075887430122  0.5659191021182004  1.0000
  H   H7        1.0  0.4842479601691542  0.12476781812909343  0.43428774716125407  1.0000
  H   H8        1.0  0.6146998915048744  0.2221809200435929  0.45691652194530263  1.0000
  C   C15       1.0  0.9212316279702781  0.0797934712830568  0.6431959542900287  1.0000
  C   C16       1.0  0.0004534186377262994  0.08010809542081798  0.6746695543921337  1.0000
  C   C17       1.0  0.039761156703965295  0.9633073596104177  0.6902858239695486  1.0000
  C   C18       1.0  0.00045341802522735897  0.8450001267240765  0.6746694932849298  1.0000
  C   C19       1.0  0.921231636158013  0.8422784134532224  0.6431960292765948  1.0000
  C   C20       1.0  0.8820069112824184  0.960284304574558  0.6276126203121539  1.0000
  Cl  Cl1       1.0  0.13872804831556884  0.9652039170611423  0.72960375975083  1.0000
  H   H9        1.0  0.8913901669458345  0.40697807620407067  0.6313396735275676  1.0000
  H   H10       1.0  0.03196185010200092  0.17075849359541317  0.6871872585926759  1.0000
  H   H11       1.0  0.03196181976163048  0.7555572994429394  0.6871871628407216  1.0000
  H   H12       1.0  0.8209086621946586  0.9591133296882411  0.6033391919719941  1.0000
  H   H13       1.0  0.8913901632043558  0.5139501093649997  0.6313399183353603  1.0000
  C   C21       1.0  0.9212316470032974  0.46103594306300577  0.2619534763472988  1.0000
  C   C22       1.0  0.907886180976658  0.32561096162539704  0.27009761759278317  1.0000
  C   C23       1.0  0.9012645640776088  0.25841677614834535  0.1571817303674914  1.0000
  C   C24       1.0  0.9078862152900316  0.3256110364437641  0.03498972142302126  1.0000
  C   C25       1.0  0.921231645046334  0.46103587596206896  0.02443849526094999  1.0000
  C   C26       1.0  0.9278393386511156  0.5280882554913464  0.13856772835805775  1.0000
  Cl  Cl2       1.0  0.8845929090807688  0.08923880214895963  0.16885924050988899  1.0000
  H   H14       1.0  0.926259096095129  0.5120482154455532  0.5861886941123804  1.0000
  H   H15       1.0  0.9025783879295015  0.271749284514089  0.36386196331590126  1.0000
  H   H16       1.0  0.902578441541558  0.27174926832869284  0.9486610016188783  1.0000
  H   H17       1.0  0.9381317281932774  0.632532064409991  0.1313583943461909  1.0000
  H   H18       1.0  0.9262589501057623  0.5120481975850022  0.6931610517124422  1.0000
  Zn  Zn1       1.0  0.8371654897443724  0.4573683672023159  0.636334697650339  1.0000
  Zn  Zn2       1.0  0.005290444750394752  0.4647025371893705  0.6500560437137199  1.0000
  C   C27       1.0  0.9212299230916786  0.4558638077728321  0.8803123323271915  1.0000
  C   C28       1.0  0.9212278473224198  0.4662088148054153  0.4060786862977992  1.0000
  C   C29       1.0  0.9212276988706647  0.6981523280234012  0.6380221995661586  1.0000
  C   C30       1.0  0.9212300141740866  0.22391873224660275  0.6483688835923134  1.0000
  O   O1        1.0  0.9850291163488435  0.4707224931678784  0.459655602678678  1.0000
  O   O2        1.0  0.9850316047681484  0.45691561531897285  0.8371492263959386  1.0000
  O   O3        1.0  0.9850289485927121  0.6525666220578556  0.6414981597522844  1.0000
  O   O4        1.0  0.9850317151546237  0.275071493213608  0.655306567297778  1.0000
  O   O5        1.0  0.8574241619673478  0.6469994086766995  0.6310841693770302  1.0000
  O   O6        1.0  0.8574268181393355  0.451349961744681  0.8267351667979523  1.0000
  O   O7        1.0  0.8574243297710837  0.46515679435433643  0.4492399822017661  1.0000
  O   O8        1.0  0.8574269285737244  0.26950578511407497  0.6448910441561695  1.0000
