data_image0
_chemical_formula_structural       NC9NC5H8C6FH5C6OCH8Zn2C4O8
_chemical_formula_sum              "N2 C31 H21 F1 O9 Zn2"
_cell_length_a       17.807436237873137
_cell_length_b       9.275642734913903
_cell_length_c       9.273891588657152
_cell_angle_alpha    85.99709959314173
_cell_angle_beta     89.08663702953788
_cell_angle_gamma    88.99238798493903

_space_group_name_H-M_alt    "P 1"
_space_group_IT_number       1

loop_
  _space_group_symop_operation_xyz
  'x, y, z'

loop_
  _atom_site_type_symbol
  _atom_site_label
  _atom_site_symmetry_multiplicity
  _atom_site_fract_x
  _atom_site_fract_y
  _atom_site_fract_z
  _atom_site_occupancy
  N   N1        1.0  0.7204460403273617  0.5260731294926912  0.39615658781251994  1.0000
  C   C1        1.0  0.6596790100355223  0.4868915320657532  0.38398096197943277  1.0000
  C   C2        1.0  0.5840915033068137  0.438153939596329  0.36883580536553895  1.0000
  C   C3        1.0  0.5658979166771474  0.35779678406185655  0.2524126815859846  1.0000
  C   C4        1.0  0.49250593673160026  0.3103517060862704  0.23761618888062852  1.0000
  C   C5        1.0  0.4362566269399177  0.34284430088516116  0.33920744558635274  1.0000
  C   C6        1.0  0.3582603113057263  0.29255082394699317  0.32357350584050604  1.0000
  C   C7        1.0  0.2964999539967434  0.3835846194767112  0.3522241317434702  1.0000
  C   C8        1.0  0.2229643883458274  0.3359142575649918  0.3374431706124976  1.0000
  C   C9        1.0  0.1601691898444468  0.4299398314622418  0.3664931063844452  1.0000
  N   N2        1.0  0.1096948052391872  0.5055298989362846  0.38984845837333015  1.0000
  C   C10       1.0  0.2106041432638733  0.1969234197609515  0.2939838876921743  1.0000
  C   C11       1.0  0.2715070729385365  0.10587415933417699  0.265323973519797  1.0000
  C   C12       1.0  0.3449214444738707  0.15310442073031716  0.2798808062002096  1.0000
  C   C13       1.0  0.45514393562797933  0.4237525579354928  0.45587305341119455  1.0000
  C   C14       1.0  0.5285881202626583  0.4709846664723798  0.4704971108152387  1.0000
  H   H1        1.0  0.6083832773820339  0.33210277686044076  0.17285545160139382  1.0000
  H   H2        1.0  0.4795292413801354  0.2499071059063407  0.1456725331474813  1.0000
  H   H3        1.0  0.3054998323752062  0.4920889089870708  0.3841090206494666  1.0000
  H   H4        1.0  0.1539652887530296  0.1590270664270741  0.2822824930379335  1.0000
  H   H5        1.0  0.2618176559197024  0.9982681697118918  0.23210532087356173  1.0000
  H   H6        1.0  0.3912220087245946  0.07991713024544156  0.25885079426444846  1.0000
  H   H7        1.0  0.4133680636659536  0.44886125877436434  0.5368679967406311  1.0000
  H   H8        1.0  0.5421039083180713  0.5327738223140748  0.5612825576372524  1.0000
  C   C15       1.0  0.9127496019577741  0.09238564199252952  0.39365992680341133  1.0000
  C   C16       1.0  0.8985836065449311  0.17527102041634124  0.26367671379245095  1.0000
  C   C17       1.0  0.8915012894742904  0.10919668198770305  0.13402334077077271  1.0000
  C   C18       1.0  0.8985353422144927  0.9595180024038295  0.1320605478042618  1.0000
  C   C19       1.0  0.9113495980181908  0.8750962795186905  0.2600493427366459  1.0000
  C   C20       1.0  0.9173983376698825  0.939206056345433  0.39235751341685754  1.0000
  F   F1        1.0  0.8786738145522086  0.19084798640827438  0.009554413596712052  1.0000
  H   H9        1.0  0.9894435661511022  0.17038929684748183  0.7143714156107563  1.0000
  H   H10       1.0  0.8947539001606911  0.2920818704935453  0.26189408062000874  1.0000
  H   H11       1.0  0.8933393581223306  0.9084211536908331  0.03133811269225584  1.0000
  H   H12       1.0  0.9147528162818136  0.7587209946696603  0.2560327890125542  1.0000
  H   H13       1.0  0.9660282490264648  0.6411879921455794  0.6101624396116092  1.0000
  C   C21       1.0  0.9162834417934788  0.5119122189264991  0.9697193306961736  1.0000
  C   C22       1.0  0.978126935358236  0.56956725575749  0.03720256306863057  1.0000
  C   C23       1.0  0.035769157290190146  0.6382138901380634  0.9563548330696592  1.0000
  C   C24       1.0  0.03177458428598068  0.649555980860314  0.804962830612455  1.0000
  C   C25       1.0  0.9715042620515778  0.5909446131554235  0.7361131709805719  1.0000
  C   C26       1.0  0.9138644635092961  0.51967943298813  0.8162981061219363  1.0000
  O   O1        1.0  0.09555171413783325  0.6942019101973345  0.03050694462771375  1.0000
  C   C27       1.0  0.1578185587582368  0.7668204727830492  0.9623115364130412  1.0000
  H   H14       1.0  0.7371448194786699  0.4327820982025681  0.08376797054569884  1.0000
  H   H15       1.0  0.980957702966679  0.5643895377085721  0.15409792410221534  1.0000
  H   H16       1.0  0.07534349022041775  0.7023315662702527  0.7392548459738029  1.0000
  H   H17       1.0  0.9709390168769988  0.5984077952190539  0.6190303871098934  1.0000
  H   H18       1.0  0.7943682906422893  0.4606283279005172  0.5428866612908525  1.0000
  H   H19       1.0  0.1381927011879609  0.8654571016060288  0.8980926256448027  1.0000
  H   H20       1.0  0.1887429991655991  0.6936078587470356  0.8915014061650224  1.0000
  H   H21       1.0  0.19645531293160423  0.7992557709138308  0.04647900386486481  1.0000
  Zn  Zn1       1.0  0.8327747795115644  0.5201410260555479  0.3943445402233887  1.0000
  Zn  Zn2       1.0  0.9973659494765552  0.5114503577725649  0.3916723742355599  1.0000
  C   C28       1.0  0.9142885065192826  0.5124673046824146  0.6562854697388887  1.0000
  C   C29       1.0  0.9158540293822005  0.5191258048232317  0.129731554219771  1.0000
  C   C30       1.0  0.9165321603109224  0.7790864798636665  0.386859743422886  1.0000
  C   C31       1.0  0.9136103096976901  0.2525049009829041  0.3991573609613035  1.0000
  O   O2        1.0  0.9781713713499736  0.5182423964225162  0.1824190547722555  1.0000
  O   O3        1.0  0.9768920493888571  0.5067536053984418  0.601569443764681  1.0000
  O   O4        1.0  0.9787029819070798  0.7220520194279214  0.3840062748973869  1.0000
  O   O5        1.0  0.9763603830333724  0.30294399468145916  0.39998211645731874  1.0000
  O   O6        1.0  0.8537802897878891  0.7286473921138521  0.3860347989059245  1.0000
  O   O7        1.0  0.851969366995679  0.5133507097106469  0.6035978882519843  1.0000
  O   O8        1.0  0.8532486936827762  0.5248394345861689  0.18444576630448362  1.0000
  O   O9        1.0  0.8514377049976954  0.309541023523888  0.40200893607607235  1.0000
