data_image0
_chemical_formula_structural       NC9NC5H8C8H10C6BrH5Zn2C4O8
_chemical_formula_sum              "N2 C32 H23 Br1 Zn2 O8"
_cell_length_a       17.807436237873137
_cell_length_b       9.275653711864159
_cell_length_c       10.302972455390005
_cell_angle_alpha    85.74330901256305
_cell_angle_beta     89.39215201277248
_cell_angle_gamma    87.8440138982238

_space_group_name_H-M_alt    "P 1"
_space_group_IT_number       1

loop_
  _space_group_symop_operation_xyz
  'x, y, z'

loop_
  _atom_site_type_symbol
  _atom_site_label
  _atom_site_symmetry_multiplicity
  _atom_site_fract_x
  _atom_site_fract_y
  _atom_site_fract_z
  _atom_site_occupancy
  N   N1        1.0  0.6997370871719021  0.5410733406249617  0.5621490695686495  1.0000
  C   C1        1.0  0.6393441782133362  0.5019962220852785  0.5510135832997825  1.0000
  C   C2        1.0  0.5642220371687383  0.45338859001944054  0.5371622476377631  1.0000
  C   C3        1.0  0.5465256355721786  0.3740849267378332  0.43196025088951484  1.0000
  C   C4        1.0  0.47358652339162066  0.32676684884094453  0.4184285323364738  1.0000
  C   C5        1.0  0.4172971822321442  0.3583331984450906  0.5100651336089852  1.0000
  C   C6        1.0  0.3397810728440235  0.30817387930535256  0.495766844418305  1.0000
  C   C7        1.0  0.27715255812632517  0.3989616085850245  0.5219648559330481  1.0000
  C   C8        1.0  0.2040722639704018  0.35141806253108143  0.5084461492650889  1.0000
  C   C9        1.0  0.1403787749444144  0.4451944595886861  0.5350167547293099  1.0000
  N   N2        1.0  0.08918223037199048  0.5205841949897452  0.5563787761474959  1.0000
  C   C10       1.0  0.1930383664384931  0.21280030793059845  0.46870324510288874  1.0000
  C   C11       1.0  0.2548095879478856  0.1219971961261117  0.4424968013080812  1.0000
  C   C12       1.0  0.3277726322076104  0.16910261694215478  0.45581174474652597  1.0000
  C   C13       1.0  0.435682254124721  0.43818584006708017  0.6154879061462593  1.0000
  C   C14       1.0  0.5086752906940422  0.4852924914736896  0.6288634019681227  1.0000
  H   H1        1.0  0.5890449482059805  0.3491162263032703  0.3601975432787423  1.0000
  H   H2        1.0  0.4609709030999126  0.26715478880230337  0.3353596881314591  1.0000
  H   H3        1.0  0.2851109821612634  0.5071933857723456  0.5511514391183678  1.0000
  H   H4        1.0  0.1367615822876896  0.17500431953731144  0.4580004336690948  1.0000
  H   H5        1.0  0.24614828435577674  0.014676124449235495  0.41211288770022647  1.0000
  H   H6        1.0  0.3747770762678478  0.09609476459024413  0.4365543989954226  1.0000
  H   H7        1.0  0.3938828023154752  0.4625559325437061  0.6885429203189857  1.0000
  H   H8        1.0  0.5218125106733472  0.5462599843969611  0.7108949589550002  1.0000
  C   C15       1.0  0.8965723197664816  0.10732849919208043  0.558021130997824  1.0000
  C   C16       1.0  0.8789363155284976  0.19166230618196733  0.44249671690378944  1.0000
  C   C17       1.0  0.8545247981188342  0.12771961942013488  0.33209711132105846  1.0000
  C   C18       1.0  0.8488670877013675  0.9774235585619157  0.33632918337949125  1.0000
  C   C19       1.0  0.8673140310841992  0.891859621901375  0.44933962564160024  1.0000
  C   C20       1.0  0.8923542223821701  0.9543175612343476  0.5605178198486667  1.0000
  C   C21       1.0  0.8369240664790607  0.21943375141628207  0.20865864162114534  1.0000
  C   C22       1.0  0.9072179030531239  0.2375744690658539  0.12407233461135037  1.0000
  H   H9        1.0  0.9647862865108361  0.368283571179572  0.7369550105259417  1.0000
  H   H10       1.0  0.8825343869413317  0.3082916945358427  0.43894575804119196  1.0000
  H   H11       1.0  0.8308725371938199  0.9261294350179899  0.2514392037380775  1.0000
  H   H12       1.0  0.863839004864369  0.7755713285437278  0.4485986435225293  1.0000
  H   H13       1.0  0.8994254211907672  0.6548383206966645  0.7745006459229018  1.0000
  H   H14       1.0  0.7931157017759827  0.168858166685127  0.15285421440381142  1.0000
  H   H15       1.0  0.8141183832729052  0.32779697722598544  0.23200754383396682  1.0000
  H   H16       1.0  0.9510098857077478  0.29146698546815775  0.1770223847839123  1.0000
  H   H17       1.0  0.9297736642316162  0.13048128885850918  0.09702396307409011  1.0000
  H   H18       1.0  0.8930454757593838  0.30537913965120467  0.03367076792882817  1.0000
  C   C23       1.0  0.8944632514503488  0.5308230383973487  0.1780269374135628  1.0000
  C   C24       1.0  0.9170991711535923  0.38375526879269795  0.1862232529526635  1.0000
  C   C25       1.0  0.928327850554074  0.31080171248571964  0.07335123216735973  1.0000
  C   C26       1.0  0.9170992980890637  0.38375520584068834  0.9511408603088158  1.0000
  C   C27       1.0  0.8944632869848121  0.53082304047347  0.940512018972901  1.0000
  C   C28       1.0  0.8832545981484322  0.6036467017477511  0.05460865104953849  1.0000
  Br  Br1       1.0  0.9591164472073863  0.11076413451865919  0.08615402823164708  1.0000
  H   H19       1.0  0.8859436051949002  0.586178204159097  0.5022434622301479  1.0000
  H   H20       1.0  0.9261100044829873  0.32521028684024533  0.2799695309559618  1.0000
  H   H21       1.0  0.9261103011774197  0.32521031953081003  0.86488862406947  1.0000
  H   H22       1.0  0.8657968701370441  0.7170710072196858  0.04734928208542111  1.0000
  H   H23       1.0  0.885942551770265  0.5861777182143175  0.6092098522954035  1.0000
  Zn  Zn1       1.0  0.8121225609928139  0.5351567676761901  0.5604913844929307  1.0000
  Zn  Zn2       1.0  0.9767967968989343  0.5264890122725505  0.5580470996447451  1.0000
  C   C29       1.0  0.8944902235728807  0.5250779081475951  0.7963691171115899  1.0000
  C   C30       1.0  0.8944309234944042  0.5365695967932278  0.3221694731226472  1.0000
  C   C31       1.0  0.8931476703025878  0.7942188305335156  0.5548725136442281  1.0000
  C   C32       1.0  0.895773429201787  0.2674269446902702  0.5636661415322641  1.0000
  O   O1        1.0  0.9569131195895216  0.5352025346270879  0.36961741295730555  1.0000
  O   O2        1.0  0.9569919676461667  0.5198652565646509  0.7470656447048716  1.0000
  O   O3        1.0  0.9559069964658594  0.7371999994850913  0.552055445701281  1.0000
  O   O4        1.0  0.9579980345262835  0.3178678049809085  0.5646275154829723  1.0000
  O   O5        1.0  0.8309212671702219  0.7437779779272815  0.5539109694819939  1.0000
  O   O6        1.0  0.8320062297181964  0.5264449676833274  0.7489211043706201  1.0000
  O   O7        1.0  0.8319273819617126  0.5417821954875448  0.37147131159084434  1.0000
  O   O8        1.0  0.833012296946777  0.32444745552655374  0.5664815114217256  1.0000
