data_image0
_chemical_formula_structural       NC9NC5H8C6FH5C7H8Zn2C4O8
_chemical_formula_sum              "N2 C31 H21 F1 Zn2 O8"
_cell_length_a       17.807436237873137
_cell_length_b       9.275642734913903
_cell_length_c       9.274345330872308
_cell_angle_alpha    85.0458555401147
_cell_angle_beta     88.93938532988027
_cell_angle_gamma    88.99238798493903

_space_group_name_H-M_alt    "P 1"
_space_group_IT_number       1

loop_
  _space_group_symop_operation_xyz
  'x, y, z'

loop_
  _atom_site_type_symbol
  _atom_site_label
  _atom_site_symmetry_multiplicity
  _atom_site_fract_x
  _atom_site_fract_y
  _atom_site_fract_z
  _atom_site_occupancy
  N   N1        1.0  0.7223688378676827  0.552734435066204  0.3940892317980478  1.0000
  C   C1        1.0  0.6616164045515989  0.5137552377479164  0.3818979115691705  1.0000
  C   C2        1.0  0.5860470548759189  0.46526940903882785  0.36673323283087367  1.0000
  C   C3        1.0  0.5679930442761435  0.3868475998451031  0.25016003951002896  1.0000
  C   C4        1.0  0.4946188033814062  0.3396484896556713  0.23534447410845072  1.0000
  C   C5        1.0  0.4382476990198624  0.37045229394169343  0.33706668206164303  1.0000
  C   C6        1.0  0.3602701264254594  0.32041870599375644  0.32141259014937007  1.0000
  C   C7        1.0  0.2984754207801014  0.4109762311555156  0.35010014674228085  1.0000
  C   C8        1.0  0.22495757555967758  0.3635515788426189  0.33530013293530403  1.0000
  C   C9        1.0  0.1621275500018498  0.4570942444904591  0.3643875141080821  1.0000
  N   N2        1.0  0.1116251653979517  0.5322960669703702  0.38777297117271026  1.0000
  C   C10       1.0  0.2126494324483201  0.22528318140472625  0.2917848309490001  1.0000
  C   C11       1.0  0.2735867215947732  0.1347103457483838  0.26308797411408635  1.0000
  C   C12       1.0  0.3469836414001816  0.1816986233190927  0.27766357056867075  1.0000
  C   C13       1.0  0.4569951409715201  0.44942117374577917  0.45388267198999044  1.0000
  C   C14       1.0  0.5304217932826616  0.49641018095481204  0.46852557982095244  1.0000
  H   H1        1.0  0.6105737836476549  0.3624761030602799  0.17050026016391429  1.0000
  H   H2        1.0  0.48175233639372567  0.28073230420901263  0.14328230289665567  1.0000
  H   H3        1.0  0.30743707336576165  0.518950485900735  0.3820261353069785  1.0000
  H   H4        1.0  0.1560246063723526  0.18758134485231426  0.280068353183508  1.0000
  H   H5        1.0  0.2639371293762378  0.027656562558604714  0.22982650258614523  1.0000
  H   H6        1.0  0.3933094178723204  0.10886092280676163  0.2566064509231858  1.0000
  H   H7        1.0  0.4151221667134542  0.4731834645064559  0.5349820178951157  1.0000
  H   H8        1.0  0.5438287415146108  0.5566901754151914  0.5594280491889883  1.0000
  C   C15       1.0  0.9146753926666368  0.11908845052173711  0.39158935259000915  1.0000
  C   C16       1.0  0.900665230049166  0.20413458986221777  0.2614385910670456  1.0000
  C   C17       1.0  0.8937383503390843  0.1402155292933136  0.1316180946974912  1.0000
  C   C18       1.0  0.9007747562101842  0.9905694779714388  0.12965277168857492  1.0000
  C   C19       1.0  0.9134355702637621  0.9040201481480242  0.2578065443257507  1.0000
  C   C20       1.0  0.9193256898012861  0.9659305153930257  0.39028526039109246  1.0000
  F   F1        1.0  0.8810600973081161  0.22393592853734368  0.006988726932252387  1.0000
  H   H9        1.0  0.990984865919549  0.1917607950136866  0.7127142388775933  1.0000
  H   H10       1.0  0.8968376608078998  0.32097507333590936  0.25965366007838053  1.0000
  H   H11       1.0  0.895699525084937  0.9411469770159748  0.028800505241141305  1.0000
  H   H12       1.0  0.9168436038476107  0.7877116320155509  0.25378481325926106  1.0000
  H   H13       1.0  0.967694481666293  0.6642917961787433  0.6083709373877797  1.0000
  C   C21       1.0  0.918717481580302  0.5456623549516098  0.9671022965637528  1.0000
  C   C22       1.0  0.8745529952932024  0.649575463383079  0.03293114825931709  1.0000
  C   C23       1.0  0.8258343610454129  0.7421285755940759  0.9515575254344726  1.0000
  C   C24       1.0  0.8195476149272589  0.7318483306773673  0.802730717515904  1.0000
  C   C25       1.0  0.8648989988227918  0.631928204766389  0.7348724389711676  1.0000
  C   C26       1.0  0.915283560915313  0.539356630810641  0.8147723008097061  1.0000
  C   C27       1.0  0.7683248741986101  0.8336197158967766  0.714889363805622  1.0000
  H   H14       1.0  0.0032206353040638014  0.22706926166369645  0.09452321613150949  1.0000
  H   H15       1.0  0.876507963845245  0.6572125687177268  0.14870519314507424  1.0000
  H   H16       1.0  0.7923535769445342  0.82093244360345  0.005151260276124114  1.0000
  H   H17       1.0  0.8620374310220382  0.6287900042135088  0.6185315832719263  1.0000
  H   H18       1.0  0.9749272577919016  0.3277054373434125  0.5502115209302025  1.0000
  H   H19       1.0  0.799548180944829  0.9321222247856209  0.6751134672929808  1.0000
  H   H20       1.0  0.7191960613663663  0.8655791199838287  0.7812188589344045  1.0000
  H   H21       1.0  0.7469309727645496  0.7814417936039757  0.6207122074393325  1.0000
  Zn  Zn1       1.0  0.8346997494588801  0.5468324539927032  0.39227484847747696  1.0000
  Zn  Zn2       1.0  0.9992941229998247  0.5381862061521423  0.3895992380645976  1.0000
  C   C28       1.0  0.9158994437055729  0.5348043878556401  0.6545534201542724  1.0000
  C   C29       1.0  0.9180962355352195  0.5502159961464836  0.12732077602865877  1.0000
  C   C30       1.0  0.9184661035462589  0.8059023304552642  0.38478040376523603  1.0000
  C   C31       1.0  0.915529509705243  0.27911632355083893  0.39709387294689313  1.0000
  O   O1        1.0  0.9803504121118466  0.5484567431705059  0.18007619083033166  1.0000
  O   O2        1.0  0.9785685839017689  0.5300002541047992  0.5997668651592603  1.0000
  O   O3        1.0  0.9806403460762932  0.7489153043237184  0.38192325711550534  1.0000
  O   O4        1.0  0.9782785942674411  0.3295417070217397  0.3979196915536969  1.0000
  O   O5        1.0  0.8557152220233213  0.7554769560752717  0.38395439589383784  1.0000
  O   O6        1.0  0.8536434696701451  0.5365636388045387  0.6017979243138551  1.0000
  O   O7        1.0  0.855425304683789  0.555020090529271  0.18210551479607018  1.0000
  O   O8        1.0  0.8533534863413222  0.33610504326251767  0.39994912374528546  1.0000
