data_image0
_chemical_formula_structural       NC8NC6H8C6SCH8C6ClH5Zn2C4O8
_chemical_formula_sum              "N2 C31 H21 S1 Cl1 Zn2 O8"
_cell_length_a       17.457602349358154
_cell_length_b       10.302809429070853
_cell_length_c       10.302974078461048
_cell_angle_alpha    85.56069480931454
_cell_angle_beta     92.87591007631781
_cell_angle_gamma    91.68806441137123

_space_group_name_H-M_alt    "P 1"
_space_group_IT_number       1

loop_
  _space_group_symop_operation_xyz
  'x, y, z'

loop_
  _atom_site_type_symbol
  _atom_site_label
  _atom_site_symmetry_multiplicity
  _atom_site_fract_x
  _atom_site_fract_y
  _atom_site_fract_z
  _atom_site_occupancy
  N   N1        1.0  0.7224248898345226  0.4523867169839766  0.6269596334122811  1.0000
  C   C1        1.0  0.6613469595147522  0.40647570812500766  0.6163474210641806  1.0000
  C   C2        1.0  0.5853634311635567  0.3493681256987726  0.6031553677093195  1.0000
  C   C3        1.0  0.5268348004885628  0.38951741193639156  0.6780282919755094  1.0000
  C   C4        1.0  0.45228935476470405  0.33452743664268625  0.6654504734534621  1.0000
  C   C5        1.0  0.3901698276529998  0.3769191691894169  0.744743739933093  1.0000
  C   C6        1.0  0.31562316252104944  0.3953819896017934  0.6889986565853534  1.0000
  C   C7        1.0  0.2570945290147373  0.4353474069367973  0.7639794988736384  1.0000
  C   C8        1.0  0.1811097085133275  0.4544158981580493  0.7060196866437991  1.0000
  N   N2        1.0  0.1200308293378742  0.46974058737294233  0.6594201486094073  1.0000
  C   C9        1.0  0.2726203979256759  0.4570930691223771  0.8952137740414279  1.0000
  C   C10       1.0  0.3463823590263561  0.4390191143988946  0.9513463273855305  1.0000
  C   C11       1.0  0.4048993876050686  0.3992336947618804  0.8768230551322342  1.0000
  C   C12       1.0  0.4375611855822976  0.23871096806031122  0.5765672845577836  1.0000
  C   C13       1.0  0.4960780980964754  0.1988402748612299  0.5020942313991184  1.0000
  C   C14       1.0  0.5698387781581027  0.2539425898373695  0.515221817971117  1.0000
  H   H1        1.0  0.5391788365059211  0.4646883758838325  0.7446369780565756  1.0000
  H   H2        1.0  0.3032781617648844  0.3804165635657828  0.5870078933140856  1.0000
  H   H3        1.0  0.2277594245627234  0.48796617084176375  0.9540301643507405  1.0000
  H   H4        1.0  0.3582136486636419  0.45554172064379705  0.05296395335218684  1.0000
  H   H5        1.0  0.461385003076866  0.38424641189632247  0.9229142722199228  1.0000
  H   H6        1.0  0.3810765332522291  0.19338944532030644  0.5659189672081915  1.0000
  H   H7        1.0  0.4842478718019674  0.12478543035307754  0.43428762000677557  1.0000
  H   H8        1.0  0.6146997954844444  0.22220005761471273  0.456916383778319  1.0000
  C   C15       1.0  0.9212315431364929  0.07981037927434764  0.6431958322198799  1.0000
  C   C16       1.0  0.9654902038363442  0.08940614810557457  0.5325746547375478  1.0000
  C   C17       1.0  0.9873013185549718  0.9771924732646953  0.47736882003565406  1.0000
  C   C18       1.0  0.9654901070981816  0.8542549859627636  0.5325745770687456  1.0000
  C   C19       1.0  0.9212315125567976  0.8423072393087532  0.6431958229079295  1.0000
  C   C20       1.0  0.8992986056072926  0.9557266658805407  0.6979395968459203  1.0000
  S   S1        1.0  0.04398983570953696  0.9909492755460731  0.33619716135815403  1.0000
  C   C21       1.0  0.96085007614828  0.9956185338499273  0.2222690035525292  1.0000
  H   H9        1.0  0.9045273632796861  0.4035084150744441  0.6848536271500429  1.0000
  H   H10       1.0  0.9830692679813928  0.18378438730813706  0.4886341174955373  1.0000
  H   H11       1.0  0.9830690986777075  0.7684339864307336  0.48863400250566036  1.0000
  H   H12       1.0  0.8651474133540706  0.9474184476140393  0.7832522748328559  1.0000
  H   H13       1.0  0.9045261100842891  0.5104925923993777  0.6848520972321048  1.0000
  H   H14       1.0  0.925642628170601  0.9046267090202018  0.2367063717270892  1.0000
  H   H15       1.0  0.9256433466650358  0.08086170204521448  0.23670595845288367  1.0000
  H   H16       1.0  0.9806601448788678  0.004424604697907064  0.12127041569349317  1.0000
  C   C22       1.0  0.9212315322172644  0.46105882075550686  0.2619533111778656  1.0000
  C   C23       1.0  0.907886076830265  0.32563171876015495  0.2700974677330814  1.0000
  C   C24       1.0  0.9012644652103149  0.25843648112013584  0.15718158810406058  1.0000
  C   C25       1.0  0.9078861111436327  0.32563179357969374  0.03498957156331084  1.0000
  C   C26       1.0  0.9212315302603062  0.46105875365351956  0.024438330091525184  1.0000
  C   C27       1.0  0.9278392185971293  0.5281121831252897  0.13856755560839185  1.0000
  Cl  Cl1       1.0  0.8845928235049129  0.08925585804035929  0.16885911737194959  1.0000
  H   H17       1.0  0.9262589773013257  0.5120718919158578  0.5861885231760338  1.0000
  H   H18       1.0  0.9025782880147418  0.27176919825352  0.3638618195452372  1.0000
  H   H19       1.0  0.9025783416267993  0.27176918206787093  0.9486608578482163  1.0000
  H   H20       1.0  0.9381315999336817  0.6325576274816904  0.1313582097892012  1.0000
  H   H21       1.0  0.9262588313119602  0.5120718740550267  0.693160880776098  1.0000
  Zn  Zn1       1.0  0.8371653752464818  0.4573911874659269  0.6363345328955237  1.0000
  Zn  Zn2       1.0  0.005290329676296279  0.4647254722953893  0.6500558781297803  1.0000
  C   C28       1.0  0.9212298087119933  0.45588660447723606  0.8803121677424663  1.0000
  C   C29       1.0  0.9212277321299812  0.4662317734975452  0.40607852054357596  1.0000
  C   C30       1.0  0.921227565455624  0.6981789186127467  0.6380220075908292  1.0000
  C   C31       1.0  0.9212299180171256  0.2239378970293282  0.6483687452288707  1.0000
  O   O1        1.0  0.9850290008017886  0.47074552253763  0.45965543641418494  1.0000
  O   O2        1.0  0.9850314903058279  0.4569384284931499  0.8371490616923067  1.0000
  O   O3        1.0  0.9850288187591044  0.6525924988415155  0.6414979729303978  1.0000
  O   O4        1.0  0.9850316149788549  0.27509145897398324  0.6553064231515395  1.0000
  O   O5        1.0  0.8574240325711276  0.6470251982859145  0.6310839831845145  1.0000
  O   O6        1.0  0.85742670411428  0.451372687768838  0.8267350027235152  1.0000
  O   O7        1.0  0.8574242146612967  0.4651797365733601  0.44923981656647305  1.0000
  O   O8        1.0  0.8574268288352246  0.2695256637235768  0.6448909006391317  1.0000
