data_image0
_chemical_formula_structural       NC8NC6H8C6FH5C6ClH5Zn2C4O8
_chemical_formula_sum              "N2 C30 H18 F1 Cl1 Zn2 O8"
_cell_length_a       17.457602349358154
_cell_length_b       9.275642734913903
_cell_length_c       10.302974078461048
_cell_angle_alpha    85.47815817126667
_cell_angle_beta     92.87591007631781
_cell_angle_gamma    92.29444944329062

_space_group_name_H-M_alt    "P 1"
_space_group_IT_number       1

loop_
  _space_group_symop_operation_xyz
  'x, y, z'

loop_
  _atom_site_type_symbol
  _atom_site_label
  _atom_site_symmetry_multiplicity
  _atom_site_fract_x
  _atom_site_fract_y
  _atom_site_fract_z
  _atom_site_occupancy
  N   N1        1.0  0.7314654765932189  0.6139311163400845  0.6255920372645154  1.0000
  C   C1        1.0  0.6701017666984118  0.5629135705903376  0.6150230556332219  1.0000
  C   C2        1.0  0.5937627641147227  0.4994540916658452  0.601884775910976  1.0000
  C   C3        1.0  0.5354840483565249  0.5440690565371142  0.6767198948126909  1.0000
  C   C4        1.0  0.46059630974559423  0.4829627195158137  0.6641938559423699  1.0000
  C   C5        1.0  0.3987406559752382  0.5300695509352105  0.7434472055255912  1.0000
  C   C6        1.0  0.32430891528303685  0.5505859327021898  0.6876847372198529  1.0000
  C   C7        1.0  0.2660290521755032  0.594996577512013  0.7626279472782698  1.0000
  C   C8        1.0  0.1901629261975472  0.6161859969440109  0.7046501797787816  1.0000
  N   N2        1.0  0.1291794377198862  0.6332152030658604  0.6580362117129863  1.0000
  C   C9        1.0  0.2816902800396153  0.6191609412013255  0.8938417462991157  1.0000
  C   C10       1.0  0.3553397372500852  0.599076677428847  0.9499913184375695  1.0000
  C   C11       1.0  0.4136091158511757  0.5548660508939489  0.8755055089247379  1.0000
  C   C12       1.0  0.4452717173881469  0.3764888869651797  0.5754008897344873  1.0000
  C   C13       1.0  0.503540449127342  0.33218350215852666  0.500965379611565  1.0000
  C   C14       1.0  0.5776441213503004  0.39341467405125696  0.5140410807505633  1.0000
  H   H1        1.0  0.5482959966821926  0.627601050007826  0.7432577984227278  1.0000
  H   H2        1.0  0.3118707601136035  0.5339559494708919  0.5857080656906519  1.0000
  H   H3        1.0  0.23702148066953974  0.6534679607713756  0.9526290658833336  1.0000
  H   H4        1.0  0.3672738741893258  0.6174370411183867  0.05159338639038047  1.0000
  H   H5        1.0  0.47000144085877477  0.5382117797668042  0.9216108383353177  1.0000
  H   H6        1.0  0.3885049548228526  0.326126394018464  0.5647952480298772  1.0000
  H   H7        1.0  0.49124925796800245  0.24989177057644008  0.43322849973004396  1.0000
  H   H8        1.0  0.6223075527904975  0.35814151996185695  0.45576553595587144  1.0000
  C   C15       1.0  0.9279529757292136  0.19991428624245988  0.6421790613435396  1.0000
  C   C16       1.0  0.913098736116599  0.28250690376763976  0.523683605964999  1.0000
  C   C17       1.0  0.9054835255330601  0.21686064426962703  0.40617917406794346  1.0000
  C   C18       1.0  0.9126651538152715  0.06791809949044958  0.4050997977775346  1.0000
  C   C19       1.0  0.9261323699650346  0.98366874086732  0.5216659851934764  1.0000
  C   C20       1.0  0.9326992274048157  0.04722125118452736  0.6414610066348072  1.0000
  F   F1        1.0  0.892013078748755  0.2983069668234706  0.29278290319750444  1.0000
  H   H9        1.0  0.0072548211974468035  0.28290521531868706  0.9386351212600772  1.0000
  H   H10       1.0  0.9091803572977538  0.39894229143278714  0.5217024247689814  1.0000
  H   H11       1.0  0.9070618552054885  0.017185071200928714  0.3138453523215994  1.0000
  H   H12       1.0  0.9295980341358419  0.8676768564302721  0.5183806361068832  1.0000
  H   H13       1.0  0.9830249226836083  0.7522371545589936  0.8424548830369569  1.0000
  C   C21       1.0  0.9303260997137422  0.6235677908960646  0.26057754920513654  1.0000
  C   C22       1.0  0.9161376591556789  0.4730775589556744  0.2688492266064373  1.0000
  C   C23       1.0  0.9090977812650781  0.39840840670516564  0.1559966193463176  1.0000
  C   C24       1.0  0.9161376939347714  0.4730776420971543  0.03374133036621485  1.0000
  C   C25       1.0  0.9303260973390984  0.6235677163305351  0.023062568181979604  1.0000
  C   C26       1.0  0.937351169241551  0.6980792875369517  0.13712865485933046  1.0000
  Cl  Cl1       1.0  0.891373050817568  0.21041035585734358  0.16783345244540748  1.0000
  H   H14       1.0  0.93567108288202  0.680254885264933  0.5847647262834113  1.0000
  H   H15       1.0  0.9104945954550386  0.41322407996580623  0.362664296436523  1.0000
  H   H16       1.0  0.9104946489663465  0.4132240619798784  0.9474633347547421  1.0000
  H   H17       1.0  0.948293686034599  0.8141418696547562  0.1298209611375576  1.0000
  H   H18       1.0  0.9356709367814775  0.6802548654174982  0.6917370839002936  1.0000
  Zn  Zn1       1.0  0.8462371130402602  0.6194922183091232  0.6349622244390651  1.0000
  Zn  Zn2       1.0  0.014407720764433751  0.6276422725363824  0.6486766635652153  1.0000
  C   C27       1.0  0.9302921810159296  0.6178202852941983  0.8789412760311999  1.0000
  C   C28       1.0  0.9303544994032239  0.6293161148762438  0.40469788761591396  1.0000
  C   C29       1.0  0.9317981205742973  0.8870620102842106  0.6364229686295431  1.0000
  C   C30       1.0  0.9288484927506704  0.36007265378017905  0.6472162610223526  1.0000
  O   O1        1.0  0.9941838645450186  0.6343319140032635  0.4582705532508755  1.0000
  O   O2        1.0  0.9941004098372759  0.6189891003820436  0.8357771795626792  1.0000
  O   O3        1.0  0.9953156147534752  0.8364051566439392  0.6399418590463939  1.0000
  O   O4        1.0  0.9929686023013948  0.41691586528072877  0.6541057717362178  1.0000
  O   O5        1.0  0.8676761741149334  0.8302186227851345  0.6295331115811675  1.0000
  O   O6        1.0  0.8664609789045535  0.612804299849647  0.8253683614057767  1.0000
  O   O7        1.0  0.8665444333817502  0.6281470631990109  0.44786017425765157  1.0000
  O   O8        1.0  0.865329171077185  0.4107310041574719  0.6436954900870422  1.0000
