data_image0
_chemical_formula_structural       NC8NC6H8C6OCH8C6BrH5Zn2C4O8
_chemical_formula_sum              "N2 C31 H21 O9 Br1 Zn2"
_cell_length_a       17.457602349358154
_cell_length_b       9.273888216677433
_cell_length_c       10.302972455390005
_cell_angle_alpha    85.76054877511693
_cell_angle_beta     92.87591776842113
_cell_angle_gamma    91.10627454168798

_space_group_name_H-M_alt    "P 1"
_space_group_IT_number       1

loop_
  _space_group_symop_operation_xyz
  'x, y, z'

loop_
  _atom_site_type_symbol
  _atom_site_label
  _atom_site_symmetry_multiplicity
  _atom_site_fract_x
  _atom_site_fract_y
  _atom_site_fract_z
  _atom_site_occupancy
  N   N1        1.0  0.7138455156684942  0.6127649296895161  0.6313320902980664  1.0000
  C   C1        1.0  0.6530387813329623  0.5617842434381966  0.6205816528062191  1.0000
  C   C2        1.0  0.5773925870425654  0.4983706131440975  0.6072176645728564  1.0000
  C   C3        1.0  0.5186268000846876  0.5429533497810746  0.6822114774697643  1.0000
  C   C4        1.0  0.4444061797421963  0.48189116128686327  0.6694680996089166  1.0000
  C   C5        1.0  0.3820362505463796  0.528963964457791  0.7488890067143672  1.0000
  C   C6        1.0  0.3073805208704232  0.5494655183937247  0.6931995002012126  1.0000
  C   C7        1.0  0.24861581720549047  0.5938440826003604  0.7683006775665104  1.0000
  C   C8        1.0  0.1725183542787186  0.6150181877436562  0.7103982653019605  1.0000
  N   N2        1.0  0.1113489482665897  0.6320350862978619  0.663844857638376  1.0000
  C   C9        1.0  0.2640132447533184  0.6179909984112137  0.8996004428497104  1.0000
  C   C10       1.0  0.3378819733951178  0.597921250295159  0.9556785901717695  1.0000
  C   C11       1.0  0.3966340089206901  0.5537425598876855  0.8810355248299822  1.0000
  C   C12       1.0  0.4302439923788948  0.3754942490843187  0.5802964236610473  1.0000
  C   C13       1.0  0.48899641555581874  0.3312208688725291  0.5057033206902659  1.0000
  C   C14       1.0  0.5624316066883368  0.3924078020904336  0.5189968049074398  1.0000
  H   H1        1.0  0.5305268057229859  0.6264249966138993  0.7490464900123579  1.0000
  H   H2        1.0  0.2951239128882324  0.5328475418653689  0.5911636645941685  1.0000
  H   H3        1.0  0.2189699083463488  0.6522732359370913  0.9585097915964373  1.0000
  H   H4        1.0  0.3496156719479748  0.6162683570435874  0.05734597658975149  1.0000
  H   H5        1.0  0.4532081581254734  0.537100325393612  0.927081627289458  1.0000
  H   H6        1.0  0.3740270539291972  0.3251681423546784  0.5695116559173623  1.0000
  H   H7        1.0  0.4776036266147208  0.24898858773386867  0.4376737429271662  1.0000
  H   H8        1.0  0.607480122835116  0.35716012812407794  0.46059579477938195  1.0000
  C   C15       1.0  0.9148529827880455  0.19904722980510536  0.6464465827220676  1.0000
  C   C16       1.0  0.896942078636183  0.28144172150942004  0.5290228908902814  1.0000
  C   C17       1.0  0.8725060076438536  0.21553246652788705  0.41615881752926054  1.0000
  C   C18       1.0  0.8658389921719024  0.064228379536301  0.4202899186729021  1.0000
  C   C19       1.0  0.8845525237124038  0.9806776933389224  0.5352820012372854  1.0000
  C   C20       1.0  0.91034885317238  0.04574201350542473  0.6487421643557083  1.0000
  O   O1        1.0  0.8550599713578861  0.3041165955883671  0.30258993161748204  1.0000
  C   C21       1.0  0.829460826739781  0.25195098382868575  0.1810228369833089  1.0000
  H   H9        1.0  0.9210999209925335  0.2760346681533927  0.9664382262570297  1.0000
  H   H10       1.0  0.9001815352211534  0.39847433266597765  0.5254397809997651  1.0000
  H   H11       1.0  0.8469072543351499  0.009873651812494666  0.3347778107364121  1.0000
  H   H12       1.0  0.8805668768940331  0.8640160591168239  0.5345237122075404  1.0000
  H   H13       1.0  0.9177702532188616  0.7471711510254936  0.8636322029733137  1.0000
  H   H14       1.0  0.7744206060593989  0.1911587342909189  0.19148309912833827  1.0000
  H   H15       1.0  0.8734958533388804  0.1814774020385883  0.14569639191392003  1.0000
  H   H16       1.0  0.8201325142466874  0.34518417427507364  0.10848402194247364  1.0000
  C   C22       1.0  0.9126009026288551  0.6223946111882837  0.26635181905899974  1.0000
  C   C23       1.0  0.9357394371776175  0.47761430307285213  0.2767364958623173  1.0000
  C   C24       1.0  0.9472174415284337  0.40579545536198336  0.1649500244552331  1.0000
  C   C25       1.0  0.9357395667528114  0.47761425307088023  0.04165411568222055  1.0000
  C   C26       1.0  0.9126009388976619  0.622394616892824  0.028836904112422124  1.0000
  C   C27       1.0  0.9011433689908913  0.6940855897050868  0.14184991942477976  1.0000
  Br  Br1       1.0  0.9786896777978995  0.20886920338302617  0.18072935370432086  1.0000
  H   H17       1.0  0.9038920830413242  0.6768888287330848  0.5897446949335794  1.0000
  H   H18       1.0  0.9449503499603245  0.41997990623753645  0.37135390942150104  1.0000
  H   H19       1.0  0.9449506527825415  0.41997996922600667  0.9562730317126777  1.0000
  H   H20       1.0  0.883298004335775  0.8057457132065766  0.13290279853068454  1.0000
  H   H21       1.0  0.9038910079465731  0.6768882351549164  0.6967109813091734  1.0000
  Zn  Zn1       1.0  0.8285564403686009  0.6183220145234951  0.6407220581401778  1.0000
  Zn  Zn2       1.0  0.996638072195458  0.6264661814505152  0.6544654867540733  1.0000
  C   C28       1.0  0.9126297809470203  0.6166513098874582  0.8846952019030889  1.0000
  C   C29       1.0  0.9125665573867514  0.6281387940320167  0.41049262542493836  1.0000
  C   C30       1.0  0.9111962949407191  0.8856984863689823  0.6431344684482094  1.0000
  C   C31       1.0  0.9139999952525497  0.35908988269878916  0.6520534187097993  1.0000
  O   O2        1.0  0.9763411675809838  0.6331509737035093  0.4640831392662086  1.0000
  O   O3        1.0  0.9764252459506509  0.6178192768924882  0.8415352557076414  1.0000
  O   O4        1.0  0.9752668280045593  0.8350782328036097  0.646473188115464  1.0000
  O   O5        1.0  0.9774995281173331  0.4158920253262941  0.6591451048542414  1.0000
  O   O6        1.0  0.8476949270887059  0.8288961678700812  0.6360424353432275  1.0000
  O   O7        1.0  0.8488533358172804  0.6116389440330283  0.8311044384086417  1.0000
  O   O8        1.0  0.8487692577657775  0.6269705906083842  0.45365076095183743  1.0000
  O   O9        1.0  0.8499276183538492  0.4097116319196281  0.6487128238472326  1.0000
