data_image0
_chemical_formula_structural       NC8NC6H8C6NCOH7C6BrH5Zn2C4O8
_chemical_formula_sum              "N3 C31 H20 O9 Br1 Zn2"
_cell_length_a       17.457602349358154
_cell_length_b       10.299619329790078
_cell_length_c       10.302972455390005
_cell_angle_alpha    85.56660839363487
_cell_angle_beta     92.87591776842113
_cell_angle_gamma    91.71362633690529

_space_group_name_H-M_alt    "P 1"
_space_group_IT_number       1

loop_
  _space_group_symop_operation_xyz
  'x, y, z'

loop_
  _atom_site_type_symbol
  _atom_site_label
  _atom_site_symmetry_multiplicity
  _atom_site_fract_x
  _atom_site_fract_y
  _atom_site_fract_z
  _atom_site_occupancy
  N   N1        1.0  0.7228124981828511  0.45284189257617946  0.6271413056515149  1.0000
  C   C1        1.0  0.661722310931293  0.4069164912143961  0.6165233419463176  1.0000
  C   C2        1.0  0.5857235364827147  0.3497910063061018  0.6033241346201579  1.0000
  C   C3        1.0  0.5272056298032994  0.38995288376232873  0.6782020988619017  1.0000
  C   C4        1.0  0.4526455033328931  0.33494566983819407  0.6656173916649031  1.0000
  C   C5        1.0  0.3905372992001436  0.37735069687513656  0.744915979654178  1.0000
  C   C6        1.0  0.3159955582849027  0.39581930062061166  0.6891731996627353  1.0000
  C   C7        1.0  0.2574775996985163  0.43579725154504967  0.7641590589168263  1.0000
  C   C8        1.0  0.1814978649211366  0.45487171579193486  0.7062016255434307  1.0000
  N   N2        1.0  0.120423072965263  0.47020120532022447  0.6596039993109277  1.0000
  C   C9        1.0  0.2730092842405692  0.45754974021881534  0.8953960782150538  1.0000
  C   C10       1.0  0.3467664249645567  0.43947012408897446  0.9515263769639681  1.0000
  C   C11       1.0  0.40527282671108383  0.39967222732079044  0.8769981103594651  1.0000
  C   C12       1.0  0.4378917485106653  0.2390991590150915  0.5767221890814351  1.0000
  C   C13       1.0  0.4963980114326741  0.19921596195795765  0.5022441309002736  1.0000
  C   C14       1.0  0.5701734022745062  0.2543355508210081  0.5153786203032753  1.0000
  H   H1        1.0  0.5395697382899519  0.4651474165355567  0.7448202095550505  1.0000
  H   H2        1.0  0.3036465542552714  0.3808491756967698  0.587180546022021  1.0000
  H   H3        1.0  0.2281565572762955  0.4884325241459375  0.9542163442492122  1.0000
  H   H4        1.0  0.3586021335390687  0.4559979173221864  0.05314608825468592  1.0000
  H   H5        1.0  0.46175444499399443  0.38468024987016425  0.9230874578198198  1.0000
  H   H6        1.0  0.38139499661093995  0.19376342855550233  0.5660681941934345  1.0000
  H   H7        1.0  0.48454801052378615  0.1251378984032474  0.43442823448335255  1.0000
  H   H8        1.0  0.6150259411462903  0.2225830638891113  0.45706920158334263  1.0000
  C   C15       1.0  0.9215196924526835  0.08014876475125443  0.6433308473606072  1.0000
  C   C16       1.0  0.8845144953243906  0.08662459769282371  0.5188034930120746  1.0000
  C   C17       1.0  0.8670129805988747  0.9732092345045213  0.4552524272545835  1.0000
  C   C18       1.0  0.8847429794636262  0.8514761158390785  0.5189220891958135  1.0000
  C   C19       1.0  0.9217231797635737  0.8428846619650482  0.6434263079608236  1.0000
  C   C20       1.0  0.9401741808716804  0.957844237371905  0.7047036707216134  1.0000
  N   N3        1.0  0.8280808024274231  0.9835879234677702  0.3286466775178516  1.0000
  C   C21       1.0  0.8401441201372915  0.899436182451388  0.22748113932911962  1.0000
  O   O1        1.0  0.8940066203952659  0.8200633634795407  0.23733649993350148  1.0000
  H   H9        1.0  0.9905938463083108  0.27510327968758586  0.8788093462246804  1.0000
  H   H10       1.0  0.8696468255486272  0.18007764924456993  0.4700067925913267  1.0000
  H   H11       1.0  0.8683371881108576  0.7633664392848692  0.4726747213677682  1.0000
  H   H12       1.0  0.968710094799455  0.95197695203396  0.8006938672934141  1.0000
  H   H13       1.0  0.9348884927055278  0.5120233819207605  0.6920510084564953  1.0000
  H   H14       1.0  0.7925681534890473  0.06263899926252692  0.3047210989738782  1.0000
  H   H15       1.0  0.8037224124853575  0.906716510489991  0.13925438356556286  1.0000
  C   C22       1.0  0.9216214262291001  0.46151668729425954  0.2621360115956488  1.0000
  C   C23       1.0  0.9439549814114375  0.3310929082437808  0.27289690137409006  1.0000
  C   C24       1.0  0.9550336725456967  0.2663956738793247  0.1612970519097192  1.0000
  C   C25       1.0  0.9439551107086201  0.33109286320004383  0.0378145213239236  1.0000
  C   C26       1.0  0.9216214625296246  0.46151669243313376  0.024621096634247497  1.0000
  C   C27       1.0  0.910562494854221  0.5260987320743642  0.1374478222880029  1.0000
  Br  Br1       1.0  0.9854109976935195  0.08899678371489039  0.17758809585330715  1.0000
  H   H16       1.0  0.9132155948122954  0.5106072154268924  0.5853872837398839  1.0000
  H   H17       1.0  0.9528454466080557  0.2791735834654163  0.36766407844866555  1.0000
  H   H18       1.0  0.9528457497804891  0.27917364020790036  0.9525832005761661  1.0000
  H   H19       1.0  0.8933379611438732  0.6266865500302177  0.1282105515260703  1.0000
  H   H20       1.0  0.9132145164172463  0.5106066807084015  0.6923535716578968  1.0000
  Zn  Zn1       1.0  0.837554320307387  0.4578479325134186  0.6365168333570801  1.0000
  Zn  Zn2       1.0  0.00568123375035845  0.4651845174514271  0.6502390992775855  1.0000
  C   C28       1.0  0.9216183717581832  0.4563428962612832  0.8804943184615024  1.0000
  C   C29       1.0  0.9216190186774628  0.4666912724556562  0.40626189164912563  1.0000
  C   C30       1.0  0.9216807896388244  0.6987111434099524  0.6382344634200607  1.0000
  C   C31       1.0  0.9215565430105329  0.22432146248454132  0.6485218110285764  1.0000
  O   O2        1.0  0.9854214966202095  0.47120644045429705  0.4598393812949739  1.0000
  O   O3        1.0  0.9854203306652456  0.4573950467407588  0.8373313372929458  1.0000
  O   O4        1.0  0.9854698737944965  0.6531104339458891  0.641704720286284  1.0000
  O   O5        1.0  0.9853718961231045  0.27549106003600454  0.6554658962779147  1.0000
  O   O6        1.0  0.8578636005611768  0.6475413874266391  0.6312900316671861  1.0000
  O   O7        1.0  0.8578140578447508  0.4518275605417521  0.826916579646275  1.0000
  O   O8        1.0  0.8578152238385683  0.4656389090010329  0.4494230627634692  1.0000
  O   O9        1.0  0.8577656233358538  0.2699235192937002  0.645049675080567  1.0000
