data_image0
_chemical_formula_structural       NC9NC5H8C6NH7C6H6Zn2C4O8
_chemical_formula_sum              "N3 C30 H21 Zn2 O8"
_cell_length_a       17.807436237873137
_cell_length_b       9.274771166103582
_cell_length_c       10.681121600428288
_cell_angle_alpha    85.45578074471726
_cell_angle_beta     89.39214167786866
_cell_angle_gamma    88.98784114054227

_space_group_name_H-M_alt    "P 1"
_space_group_IT_number       1

loop_
  _space_group_symop_operation_xyz
  'x, y, z'

loop_
  _atom_site_type_symbol
  _atom_site_label
  _atom_site_symmetry_multiplicity
  _atom_site_fract_x
  _atom_site_fract_y
  _atom_site_fract_z
  _atom_site_occupancy
  N   N1        1.0  0.7158025741676836  0.5409826265916853  0.6060900171884045  1.0000
  C   C1        1.0  0.655002296364672  0.5019078069198906  0.5955253532620288  1.0000
  C   C2        1.0  0.579373433339391  0.4533030343925408  0.5823840583353628  1.0000
  C   C3        1.0  0.5608503202254607  0.3740040340798907  0.48126494942373  1.0000
  C   C4        1.0  0.4874179293375963  0.3266887398569227  0.4684261286240581  1.0000
  C   C5        1.0  0.43145765055472834  0.3582532348317329  0.5566758265951302  1.0000
  C   C6        1.0  0.3534186432503819  0.30809686651454715  0.5431104138398797  1.0000
  C   C7        1.0  0.2917365670729803  0.3988792548521496  0.5679706597500982  1.0000
  C   C8        1.0  0.2181606437544996  0.35133850573842573  0.5551454090458905  1.0000
  C   C9        1.0  0.1554447494068045  0.4451093860197777  0.5803515521679012  1.0000
  N   N2        1.0  0.10503412332163  0.5204946863144342  0.6006166015699594  1.0000
  C   C10       1.0  0.2056816920417423  0.21272890587512272  0.5174359481096109  1.0000
  C   C11       1.0  0.2665063146524226  0.1219311359175268  0.4925676379642847  1.0000
  C   C12       1.0  0.3399604207407783  0.16903378556554127  0.5051983192325675  1.0000
  C   C13       1.0  0.4506751569150229  0.43810118119077557  0.6580054142596068  1.0000
  C   C14       1.0  0.5241592681352646  0.48520506135870134  0.6706944985837116  1.0000
  H   H1        1.0  0.6031093473846968  0.34903680066138865  0.41215572524177335  1.0000
  H   H2        1.0  0.4741808756660021  0.267080184827186  0.3885675959262809  1.0000
  H   H3        1.0  0.3008232795391103  0.507104664824201  0.5956348428385101  1.0000
  H   H4        1.0  0.1490108944895364  0.1749351409840687  0.5072828514641443  1.0000
  H   H5        1.0  0.2567262166507216  0.014616377837935124  0.4637443987252854  1.0000
  H   H6        1.0  0.38620377667874567  0.09603022823742546  0.48695266901827505  1.0000
  H   H7        1.0  0.4091297500943001  0.46246984190911267  0.7283638978936686  1.0000
  H   H8        1.0  0.5379320516803145  0.5461689694931791  0.7495463425492073  1.0000
  C   C15       1.0  0.9081161165792626  0.10726330538655837  0.604068288360162  1.0000
  C   C16       1.0  0.8908334507737031  0.19148175318099403  0.4923235033423736  1.0000
  C   C17       1.0  0.880563098628621  0.1269729580631247  0.3797695970124857  1.0000
  C   C18       1.0  0.8876147868058089  0.9768661695424534  0.378143637496966  1.0000
  C   C19       1.0  0.90350862510652  0.8914013969820359  0.4883695670733661  1.0000
  C   C20       1.0  0.9127277049724563  0.9542026048301467  0.6026491451776979  1.0000
  N   N3        1.0  0.8637418765278123  0.2142666148325929  0.26678751220611274  1.0000
  H   H9        1.0  0.9926409312358665  0.18247452468348957  0.8769483340324902  1.0000
  H   H10       1.0  0.8870465398975544  0.3082737920820391  0.49189571245354435  1.0000
  H   H11       1.0  0.8800682578756529  0.925776165921308  0.2915397635358843  1.0000
  H   H12       1.0  0.9068185272678294  0.7750631587620991  0.4847365055689208  1.0000
  H   H13       1.0  0.9666144770392404  0.6542998783609665  0.7883550990951513  1.0000
  H   H14       1.0  0.8585672018509743  0.3266128943499893  0.2668196041477795  1.0000
  H   H15       1.0  0.856266052723651  0.16719009739363022  0.18224210949882402  1.0000
  C   C21       1.0  0.9104219215809215  0.5307329163662167  0.235613475507092  1.0000
  C   C22       1.0  0.8562280104566826  0.4533599875639114  0.1750813082097269  1.0000
  C   C23       1.0  0.8562279640682515  0.4533600824988284  0.04419916876128549  1.0000
  C   C24       1.0  0.9104218629232407  0.5307329901640496  0.97110391189524  1.0000
  C   C25       1.0  0.9645710425056482  0.6080417905586968  0.031636234138373576  1.0000
  C   C26       1.0  0.9645710327747795  0.6080417687032098  0.16252853297401204  1.0000
  H   H16       1.0  0.9652263358281411  0.6089782344847867  0.5279708667425069  1.0000
  H   H17       1.0  0.8137482644750551  0.39271142900894795  0.22881601841673782  1.0000
  H   H18       1.0  0.8137482491589989  0.3927114977151904  0.0003119892980329997  1.0000
  H   H19       1.0  0.007056336211531011  0.6686983436647487  0.9779457680403341  1.0000
  H   H20       1.0  0.007056298095333258  0.6686982951040057  0.2063701361415664  1.0000
  H   H21       1.0  0.9652265674984439  0.6089777197238797  0.6660418385747424  1.0000
  Zn  Zn1       1.0  0.8281263692443318  0.5350664017098146  0.6045177566043196  1.0000
  Zn  Zn2       1.0  0.9927102460415996  0.5263991562223178  0.6021991770612916  1.0000
  C   C27       1.0  0.9103889373446354  0.5249881420079534  0.8320901363830742  1.0000
  C   C28       1.0  0.910449485099469  0.5364791408147704  0.37462689182777487  1.0000
  C   C29       1.0  0.911852141804419  0.7941132219094318  0.5979271279600724  1.0000
  C   C30       1.0  0.9089862150448645  0.2673523312980286  0.6087899707103326  1.0000
  O   O1        1.0  0.972917424920572  0.5351121604535596  0.4204011859369987  1.0000
  O   O2        1.0  0.9728363458774324  0.5197757956986351  0.784555735380803  1.0000
  O   O3        1.0  0.974017060009927  0.7370977456099632  0.5954674586860507  1.0000
  O   O4        1.0  0.9717366546829234  0.31779022381570887  0.6094893695094983  1.0000
  O   O5        1.0  0.8490999044386169  0.7436753370756986  0.5972275649407408  1.0000
  O   O6        1.0  0.8479191997365517  0.5263551197389096  0.7863157719605647  1.0000
  O   O7        1.0  0.8480002785560855  0.5416914342385257  0.42215971697767674  1.0000
  O   O8        1.0  0.8468195082591996  0.3243694872864733  0.6112479944570572  1.0000
