data_image0
_chemical_formula_structural       NC8NC6H8C6SCH8C8H10Zn2C4O8
_chemical_formula_sum              "N2 C33 H26 S1 Zn2 O8"
_cell_length_a       17.457602349358154
_cell_length_b       10.302809429070853
_cell_length_c       9.275657083861812
_cell_angle_alpha    85.85419947876746
_cell_angle_beta     92.37146316173272
_cell_angle_gamma    91.68806441137123

_space_group_name_H-M_alt    "P 1"
_space_group_IT_number       1

loop_
  _space_group_symop_operation_xyz
  'x, y, z'

loop_
  _atom_site_type_symbol
  _atom_site_label
  _atom_site_symmetry_multiplicity
  _atom_site_fract_x
  _atom_site_fract_y
  _atom_site_fract_z
  _atom_site_occupancy
  N   N1        1.0  0.7294602249586932  0.4456480277612964  0.4760561774812029  1.0000
  C   C1        1.0  0.668436670658809  0.39968493565501806  0.46427763415160195  1.0000
  C   C2        1.0  0.5925207372003681  0.34251260848425047  0.44963571341445574  1.0000
  C   C3        1.0  0.533608464407664  0.38302936051537473  0.5327375166723929  1.0000
  C   C4        1.0  0.45912746629262063  0.32797765505540366  0.518777338003303  1.0000
  C   C5        1.0  0.3966016476279881  0.3707585478142157  0.6067852994292868  1.0000
  C   C6        1.0  0.322340615280346  0.38894777918907053  0.5449135748457579  1.0000
  C   C7        1.0  0.2634277866941022  0.4292811919640711  0.6281351568131284  1.0000
  C   C8        1.0  0.1877399470482402  0.4480652245695924  0.5638052944497043  1.0000
  N   N2        1.0  0.1268998397069452  0.46316120979851694  0.51208425270333  1.0000
  C   C9        1.0  0.2782812230036034  0.45167093353525334  0.7737926828490955  1.0000
  C   C10       1.0  0.3517555659586258  0.4338724694975995  0.8360944621649815  1.0000
  C   C11       1.0  0.4106544450696389  0.39372130011003703  0.7533807392854868  1.0000
  C   C12       1.0  0.4448547265615276  0.23172496026900413  0.42012547754856033  1.0000
  C   C13       1.0  0.50375323228989  0.19148876378763546  0.33746749307333745  1.0000
  C   C14       1.0  0.5774466477807493  0.24665550711439432  0.3520378618314657  1.0000
  H   H1        1.0  0.5456112035191452  0.45852723053634015  0.6066668039311516  1.0000
  H   H2        1.0  0.310518206005571  0.37348179681546534  0.4317135572617916  1.0000
  H   H3        1.0  0.2331188797562036  0.4828326978352453  0.8390732651654673  1.0000
  H   H4        1.0  0.36306617603645  0.45089380077462704  0.9488803329371345  1.0000
  H   H5        1.0  0.46690389329800813  0.37896022646265437  0.8045375932734853  1.0000
  H   H6        1.0  0.3884246352501196  0.18635117708341453  0.40830686111162473  1.0000
  H   H7        1.0  0.49227044096261835  0.11710113395682642  0.2622086229979459  1.0000
  H   H8        1.0  0.6226064168984355  0.21462682001196898  0.28732439206057214  1.0000
  C   C15       1.0  0.928183685440894  0.07315137503441393  0.4940768092675203  1.0000
  C   C16       1.0  0.9730091590869318  0.08220423066757321  0.37129785522779946  1.0000
  C   C17       1.0  0.9951031435283939  0.9697196133457676  0.31002464519827466  1.0000
  C   C18       1.0  0.9730090627467372  0.8470530681435747  0.37129776902283806  1.0000
  C   C19       1.0  0.9281836549089121  0.835648235023118  0.49407679893214396  1.0000
  C   C20       1.0  0.9059702457942939  0.9493363363465163  0.5548371655931024  1.0000
  S   S1        1.0  0.05251501154211846  0.9827835649593666  0.1533375714664451  1.0000
  C   C21       1.0  0.9699590095962572  0.9868936798703193  0.026888184744983556  1.0000
  H   H9        1.0  0.911266054796332  0.397053861439582  0.5403129875973303  1.0000
  H   H10       1.0  0.9908133705856609  0.1763668158864966  0.3225280506993755  1.0000
  H   H11       1.0  0.9908132018711733  0.7610164144447393  0.32252792307158185  1.0000
  H   H12       1.0  0.8713819190659436  0.9414468207181155  0.6495260995563701  1.0000
  H   H13       1.0  0.9112648094400966  0.5040380312558933  0.5403112895343691  1.0000
  H   H14       1.0  0.9346775858448936  0.8959727116153088  0.04291228613227793  1.0000
  H   H15       1.0  0.9346783064569079  0.0722077026120298  0.042911827437335015  1.0000
  H   H16       1.0  0.9902865859908203  0.9952040638382383  0.9147893872177022  1.0000
  C   C22       1.0  0.9301371268486206  0.45252873178253084  0.07093398043186716  1.0000
  C   C23       1.0  0.9698629176809733  0.5532474023229188  0.13947551153648696  1.0000
  C   C24       1.0  0.0028170895070449564  0.6592243843270051  0.05872422562667157  1.0000
  C   C25       1.0  0.9971836586400816  0.6636471098414283  0.9075746657327004  1.0000
  C   C26       1.0  0.9591142495470438  0.563582706258493  0.8377306824555433  1.0000
  C   C27       1.0  0.926230205233015  0.4562708499175525  0.9172196024393209  1.0000
  C   C28       1.0  0.046088457507041714  0.7652424787967143  0.13384668239863773  1.0000
  C   C29       1.0  0.1303247438243853  0.7319074035550452  0.15932735517877483  1.0000
  H   H17       1.0  0.895713474905518  0.24389499621974764  0.3656405339934994  1.0000
  H   H18       1.0  0.9738280774921236  0.5510151359162465  0.2565599811217796  1.0000
  H   H19       1.0  0.023037791340129177  0.744137313536654  0.8435321150223483  1.0000
  H   H20       1.0  0.9571407568964735  0.5685552593909586  0.7205774637067615  1.0000
  H   H21       1.0  0.8356825446933945  0.30265189397942316  0.6411770375362815  1.0000
  H   H22       1.0  0.04188854205531367  0.8593093822660443  0.06762564059309706  1.0000
  H   H23       1.0  0.020581349222543066  0.778822311932666  0.23941094535766294  1.0000
  H   H24       1.0  0.13578417679733756  0.639789320922389  0.22857044922774317  1.0000
  H   H25       1.0  0.1573126554009563  0.7211478407700345  0.054599009114672636  1.0000
  H   H26       1.0  0.16116510491478264  0.8112012879163895  0.2146896480343059  1.0000
  Zn  Zn1       1.0  0.8441526742304013  0.45069850893284413  0.4864614215671643  1.0000
  Zn  Zn2       1.0  0.012207321723561648  0.45810013619702294  0.5016908057974039  1.0000
  C   C30       1.0  0.9269669882779262  0.45039133389990305  0.7572533214307948  1.0000
  C   C31       1.0  0.9293948421745739  0.45840903080418594  0.23089921366674182  1.0000
  C   C32       1.0  0.9282062179712504  0.691494521968397  0.4883343574983623  1.0000
  C   C33       1.0  0.9281555547813605  0.21730428071970742  0.49981824922537865  1.0000
  O   O1        1.0  0.9929215875568687  0.4631857278204172  0.2903644791880582  1.0000
  O   O2        1.0  0.9909898337380627  0.4512313194552473  0.7093463913604607  1.0000
  O   O3        1.0  0.9919896607415238  0.6459251617467185  0.492192347427449  1.0000
  O   O4        1.0  0.9919217037065156  0.268491891812942  0.5075184098835472  1.0000
  O   O5        1.0  0.8644382348986791  0.6403067507924927  0.4806338122764  1.0000
  O   O6        1.0  0.8634384082463391  0.44561446799257354  0.6977877793785874  1.0000
  O   O7        1.0  0.8653701701140042  0.4575688234572106  0.27880413477948673  1.0000
  O   O8        1.0  0.864370285761775  0.26287497864130716  0.49595817350787796  1.0000
