data_image0
_chemical_formula_structural       NC8NC6H8C6OCH8C6OCH8Zn2C4O8
_chemical_formula_sum              "N2 C32 H24 O10 Zn2"
_cell_length_a       17.457602349358154
_cell_length_b       9.273888216677433
_cell_length_c       9.273891588657152
_cell_angle_alpha    86.27290680644056
_cell_angle_beta     92.54290593679647
_cell_angle_gamma    91.10627454168798

_space_group_name_H-M_alt    "P 1"
_space_group_IT_number       1

loop_
  _space_group_symop_operation_xyz
  'x, y, z'

loop_
  _atom_site_type_symbol
  _atom_site_label
  _atom_site_symmetry_multiplicity
  _atom_site_fract_x
  _atom_site_fract_y
  _atom_site_fract_z
  _atom_site_occupancy
  N   N1        1.0  0.718428400003667  0.5992797727417414  0.4808019213685293  1.0000
  C   C1        1.0  0.657657662721349  0.5481931650058838  0.46886911877537196  1.0000
  C   C2        1.0  0.5820562167675616  0.48464786253806214  0.454035319354007  1.0000
  C   C3        1.0  0.5230393185153197  0.5299694952431488  0.537277174923662  1.0000
  C   C4        1.0  0.4488613684410222  0.46878174930050176  0.5231322424500928  1.0000
  C   C5        1.0  0.3862255041498631  0.5166370676379353  0.6112880972213541  1.0000
  C   C6        1.0  0.3117562467110531  0.5365899262107712  0.5494736930879627  1.0000
  C   C7        1.0  0.2527400722496908  0.5817084443218967  0.632834721389685  1.0000
  C   C8        1.0  0.1768364913130312  0.6023120508719932  0.5685640295462646  1.0000
  N   N2        1.0  0.1158229659796396  0.6188702698558319  0.5168905395967065  1.0000
  C   C9        1.0  0.2676978521421138  0.6071490252574303  0.7785752255171183  1.0000
  C   C10       1.0  0.3413788072114594  0.5876318016892355  0.840821014331907  1.0000
  C   C11       1.0  0.4003807795788756  0.5427176710452648  0.7579684825770694  1.0000
  C   C12       1.0  0.4349977659089612  0.36150624994257163  0.4241532002674986  1.0000
  C   C13       1.0  0.493999958632386  0.31649792176155334  0.341356125893884  1.0000
  C   C14       1.0  0.5673906375058332  0.37781583249400374  0.35611166705758857  1.0000
  H   H1        1.0  0.5347155320051707  0.6140996514392414  0.6114629010010204  1.0000
  H   H2        1.0  0.2998412982573096  0.5189666150444772  0.43621565269192786  1.0000
  H   H3        1.0  0.2224572620919099  0.6420116824803792  0.8439635997129806  1.0000
  H   H4        1.0  0.3527720799610151  0.6069806128340318  0.9536700824008133  1.0000
  H   H5        1.0  0.45680074677927246  0.5265291177649449  0.809078872386777  1.0000
  H   H6        1.0  0.37881693946481343  0.31107388348064813  0.41218229167926324  1.0000
  H   H7        1.0  0.48283496175395657  0.2335953614947548  0.26584445275885793  1.0000
  H   H8        1.0  0.6126347051611828  0.34199274736917595  0.2912875400741448  1.0000
  C   C15       1.0  0.9193852573514296  0.18571099232937982  0.49757875063972423  1.0000
  C   C16       1.0  0.9018675378384845  0.2669485365356823  0.36724045180760445  1.0000
  C   C17       1.0  0.8778093839363008  0.19992725888433305  0.2419632518519732  1.0000
  C   C18       1.0  0.8711285357744881  0.04866387464240218  0.2465487037907268  1.0000
  C   C19       1.0  0.8894570247417565  0.9662461778795971  0.3741879577334075  1.0000
  C   C20       1.0  0.914873441148657  0.03242839384545748  0.500126807171515  1.0000
  O   O1        1.0  0.8607436247537261  0.2873924209258252  0.11590372196421228  1.0000
  C   C21       1.0  0.835551538655604  0.23402903771318107  0.9809663165615632  1.0000
  H   H9        1.0  0.924560726954844  0.2658512316635435  0.8527640272071495  1.0000
  H   H10       1.0  0.9051189922047079  0.38394584416909017  0.36326326083044225  1.0000
  H   H11       1.0  0.8524831289733008  0.9934666166099033  0.15163171979777723  1.0000
  H   H12       1.0  0.8854739169987095  0.8495770724173931  0.3733462698200207  1.0000
  H   H13       1.0  0.9215752976266922  0.7359747914230836  0.73865109160221  1.0000
  H   H14       1.0  0.7804762925529215  0.17333985063179314  0.9925770294598961  1.0000
  H   H15       1.0  0.8797048532707941  0.16320739292490072  0.9417545639560805  1.0000
  H   H16       1.0  0.8264661170762129  0.32654752059705694  0.9004494668165872  1.0000
  C   C22       1.0  0.918405896692656  0.6053133910862467  0.07568003396668588  1.0000
  C   C23       1.0  0.9808777898159302  0.6693029484498141  0.1501397164745728  1.0000
  C   C24       1.0  0.038942784639071526  0.7438435255898239  0.07585335520137582  1.0000
  C   C25       1.0  0.034742960691650504  0.7547661018399052  0.9240702115742967  1.0000
  C   C26       1.0  0.9738867052113813  0.6899830164688008  0.8484120028184376  1.0000
  C   C27       1.0  0.9158528018604724  0.6128259434660894  0.9220254959931906  1.0000
  O   O2        1.0  0.09933001986459855  0.8059547932015569  0.15675043053653726  1.0000
  C   C28       1.0  0.162070339060558  0.8849412239160135  0.09563674593896443  1.0000
  H   H17       1.0  0.7364866042466454  0.5077740042854237  0.169867300993797  1.0000
  H   H18       1.0  0.9838227526868581  0.6644205546801794  0.2673235515230614  1.0000
  H   H19       1.0  0.07862170377236044  0.8119960160619957  0.8633251508017867  1.0000
  H   H20       1.0  0.9732283901413846  0.6973828085503209  0.7312969988038729  1.0000
  H   H21       1.0  0.7945702448528262  0.5414990651331395  0.6353405881522085  1.0000
  H   H22       1.0  0.1409670663950804  0.9814872235423078  0.02966551685912533  1.0000
  H   H23       1.0  0.19442425713906086  0.8149662963565407  0.02791229269985962  1.0000
  H   H24       1.0  0.20113886446509177  0.9213364813341165  0.18414860215393514  1.0000
  Zn  Zn1       1.0  0.8331078830836214  0.6049293746788009  0.49122462581204474  1.0000
  Zn  Zn2       1.0  0.0011434960455227738  0.6132089523146902  0.5064795975959488  1.0000
  C   C29       1.0  0.9163642974443451  0.6056624789662903  0.762030661823375  1.0000
  C   C30       1.0  0.9178889065088023  0.6124777587554182  0.2356738750813019  1.0000
  C   C31       1.0  0.9157396598763654  0.8723296154249809  0.493902360183438  1.0000
  C   C32       1.0  0.9185134957359429  0.3458088880345147  0.503802243131499  1.0000
  O   O3        1.0  0.9814840727892438  0.6180179529181828  0.29515843308358725  1.0000
  O   O4        1.0  0.980304280369324  0.6064052013636418  0.7141238563308423  1.0000
  O   O5        1.0  0.9797990134817307  0.82174225746445  0.49760828217344577  1.0000
  O   O6        1.0  0.9819892826086482  0.40268090334625817  0.5116738940181198  1.0000
  O   O7        1.0  0.8522620391782026  0.8154574208233216  0.4860303241765258  1.0000
  O   O8        1.0  0.8527672970643418  0.6001220961608151  0.7025458267103137  1.0000
  O   O9        1.0  0.8539470950293715  0.611734782099381  0.2835786707625716  1.0000
  O   O10       1.0  0.8544523045746716  0.3963977231746616  0.5000942397066201  1.0000
