data_image0
_chemical_formula_structural       NC8NC6H8C6H6C7NH5Zn2C4O8
_chemical_formula_sum              "N3 C31 H19 Zn2 O8"
_cell_length_a       17.457602349358154
_cell_length_b       10.681118228259551
_cell_length_c       10.302823150593486
_cell_angle_alpha    85.56070310861249
_cell_angle_beta     92.87590926728866
_cell_angle_gamma    91.68806569353352

_space_group_name_H-M_alt    "P 1"
_space_group_IT_number       1

loop_
  _space_group_symop_operation_xyz
  'x, y, z'

loop_
  _atom_site_type_symbol
  _atom_site_label
  _atom_site_symmetry_multiplicity
  _atom_site_fract_x
  _atom_site_fract_y
  _atom_site_fract_z
  _atom_site_occupancy
  N   N1        1.0  0.7224249263943131  0.40094539404594354  0.6269397308653655  1.0000
  C   C1        1.0  0.6613469953682526  0.35666048303332065  0.6163273564206355  1.0000
  C   C2        1.0  0.5853634661384514  0.30157556399658225  0.6031351015581208  1.0000
  C   C3        1.0  0.5268348355353968  0.34030282390811006  0.6780091284000622  1.0000
  C   C4        1.0  0.4522893889644713  0.28726050959218385  0.6654311176743932  1.0000
  C   C5        1.0  0.3901698619267405  0.3281507917938553  0.744725551805052  1.0000
  C   C6        1.0  0.3156231975781109  0.34595968720020576  0.6889796545564475  1.0000
  C   C7        1.0  0.2570945641396582  0.3845095905651872  0.7639616009746906  1.0000
  C   C8        1.0  0.1811097444504776  0.4029027048413567  0.7060009424895408  1.0000
  N   N2        1.0  0.12003086592794489  0.41768461688175984  0.6594007240671678  1.0000
  C   C9        1.0  0.2726204323351127  0.4054850547869131  0.895197801654964  1.0000
  C   C10       1.0  0.3463823926559785  0.3880512520408532  0.9513311746320103  1.0000
  C   C11       1.0  0.40489942116614003  0.34967497113082135  0.8768068049774531  1.0000
  C   C12       1.0  0.43756121886325594  0.19483771395164706  0.5765466129183565  1.0000
  C   C13       1.0  0.496078131306989  0.1563791797390457  0.5020724630817144  1.0000
  C   C14       1.0  0.5698388122130533  0.20952985483815656  0.5152002499267867  1.0000
  H   H1        1.0  0.539178872299571  0.4128113471436925  0.7446188010685966  1.0000
  H   H2        1.0  0.3032781974114769  0.331524313556832  0.5869873951231419  1.0000
  H   H3        1.0  0.22775945901714334  0.43526467845350014  0.9540150579957172  1.0000
  H   H4        1.0  0.358213681733788  0.4039886529461738  0.05295029152025199  1.0000
  H   H5        1.0  0.46138503599508546  0.33521851502104094  0.9228986950558999  1.0000
  H   H6        1.0  0.38107656583739963  0.15112141035929483  0.5658981330285799  1.0000
  H   H7        1.0  0.48424790429494846  0.08494724469383508  0.4342648477158302  1.0000
  H   H8        1.0  0.6146998294751138  0.1789115945705526  0.45689395706136615  1.0000
  C   C15       1.0  0.9212315731130277  0.0415651416027647  0.6431761135787251  1.0000
  C   C16       1.0  0.9549116077161134  0.9684697974322718  0.7490304561586316  1.0000
  C   C17       1.0  0.9549115959864126  0.83758755876266  0.7490303958443965  1.0000
  C   C18       1.0  0.9212315602318819  0.7770555450172887  0.6431761686498745  1.0000
  C   C19       1.0  0.8875794060731397  0.8501406631660264  0.5374093052852709  1.0000
  C   C20       1.0  0.8875794177644254  0.9810329217570711  0.5374093589319515  1.0000
  H   H9        1.0  0.8871717346474085  0.34662734551952945  0.5361292327932625  1.0000
  H   H10       1.0  0.9813116532880158  0.012356853702315318  0.8320040491192955  1.0000
  H   H11       1.0  0.9813115589608371  0.7838528211354018  0.8320040184852235  1.0000
  H   H12       1.0  0.8611759183019956  0.8062990050327327  0.45442487893087113  1.0000
  H   H13       1.0  0.8611758981915365  0.03472344321997767  0.4544248667323971  1.0000
  H   H14       1.0  0.8871720171157678  0.48469800652196027  0.5361289046584017  1.0000
  C   C21       1.0  0.9212315719639034  0.40931034457657844  0.2619280631475809  1.0000
  C   C22       1.0  0.840834696099656  0.4150023834176817  0.2535349165552965  1.0000
  C   C23       1.0  0.8008364925216692  0.41783412359507266  0.1322567392613525  1.0000
  C   C24       1.0  0.840834681181261  0.4150023010167483  0.01823392148878944  1.0000
  C   C25       1.0  0.9212315715058076  0.40931033805134476  0.024424229725107827  1.0000
  C   C26       1.0  0.9610099439557749  0.4064940300363662  0.14678388600227654  1.0000
  C   C27       1.0  0.7184179352495024  0.42366909604467007  0.12478163133053122  1.0000
  N   N3        1.0  0.6521803446204456  0.4283586605624976  0.11877405228695204  1.0000
  H   H15       1.0  0.9516842370164935  0.4071546312314016  0.5924294389948594  1.0000
  H   H16       1.0  0.8091271917160385  0.4172472498931632  0.3410834048175273  1.0000
  H   H17       1.0  0.8091272221439703  0.41724715896849895  0.9249338708039518  1.0000
  H   H18       1.0  0.023009118693812836  0.40210455605481354  0.1524070353429703  1.0000
  H   H19       1.0  0.9516842113114652  0.4071544291195641  0.699446736588655  1.0000
  Zn  Zn1       1.0  0.837165411814888  0.4057726138358455  0.6363147683997321  1.0000
  Zn  Zn2       1.0  0.005290366257479029  0.41284712951160185  0.6500363156905735  1.0000
  C   C28       1.0  0.9212298432245276  0.40432132125524767  0.8802959768975032  1.0000
  C   C29       1.0  0.9212277707670629  0.4143000794491667  0.4060553844578505  1.0000
  C   C30       1.0  0.9212276061773018  0.6380320110474331  0.6380023026660009  1.0000
  C   C31       1.0  0.9212299504450365  0.18058788265971493  0.6483491232237293  1.0000
  O   O1        1.0  0.9850290390712434  0.41865395846965314  0.45963308579494777  1.0000
  O   O2        1.0  0.9850315251956724  0.405335891203511  0.8371322387315119  1.0000
  O   O3        1.0  0.9850288586628992  0.5940601926941134  0.641478312324411  1.0000
  O   O4        1.0  0.9850316482343601  0.2299296635234651  0.6552869101760004  1.0000
  O   O5        1.0  0.8574240724652108  0.588690077411161  0.6310641692249856  1.0000
  O   O6        1.0  0.8574267389944401  0.3999672805050034  0.82671802640839  1.0000
  O   O7        1.0  0.85742425292108  0.41328530413351516  0.4492173125700347  1.0000
  O   O8        1.0  0.8574268620810571  0.2245610002300915  0.6448712342878158  1.0000
