data_image0
_chemical_formula_structural       NC9NC5H8C6BrH5C8H10Zn2C4O8
_chemical_formula_sum              "N2 C32 H23 Br1 Zn2 O8"
_cell_length_a       17.807436237873137
_cell_length_b       10.302969083221269
_cell_length_c       9.275657083861812
_cell_angle_alpha    85.85419780113547
_cell_angle_beta     88.90332225934054
_cell_angle_gamma    88.39001038669201

_space_group_name_H-M_alt    "P 1"
_space_group_IT_number       1

loop_
  _space_group_symop_operation_xyz
  'x, y, z'

loop_
  _atom_site_type_symbol
  _atom_site_label
  _atom_site_symmetry_multiplicity
  _atom_site_fract_x
  _atom_site_fract_y
  _atom_site_fract_z
  _atom_site_occupancy
  N   N1        1.0  0.7146525886401924  0.37957243402587837  0.3982928766104341  1.0000
  C   C1        1.0  0.6541203927509096  0.34433484022461003  0.38605538491328106  1.0000
  C   C2        1.0  0.5788249941891576  0.3005031540111922  0.3708332739747584  1.0000
  C   C3        1.0  0.5612605890733899  0.22854775696791818  0.25427124230072984  1.0000
  C   C4        1.0  0.4881530561161774  0.18587866262689734  0.23939982912082902  1.0000
  C   C5        1.0  0.431561372710508  0.21478738241975437  0.34105442339499126  1.0000
  C   C6        1.0  0.3538664989593891  0.16955644455612218  0.3253410719612262  1.0000
  C   C7        1.0  0.2915599476557056  0.2514255762031752  0.35413548347402335  1.0000
  C   C8        1.0  0.2183100412100817  0.2085535821188289  0.3392792574059582  1.0000
  C   C9        1.0  0.1549515733200172  0.29311515643037  0.36847763290666347  1.0000
  N   N2        1.0  0.1040243570764795  0.3610968177332312  0.39195232034451677  1.0000
  C   C10       1.0  0.2067832684885366  0.0835544230172951  0.2956004793581217  1.0000
  C   C11       1.0  0.2682324920793795  0.0016713985072189796  0.26679675456803276  1.0000
  C   C12       1.0  0.341363983117793  0.04414789147356579  0.2814281457973049  1.0000
  C   C13       1.0  0.4498160819322366  0.28723816350539355  0.4578598186453544  1.0000
  C   C14       1.0  0.5229772674555188  0.329716089535405  0.47255844628070753  1.0000
  H   H1        1.0  0.6040154321945662  0.20568509108545996  0.1746640294504218  1.0000
  H   H2        1.0  0.4756566822793131  0.13176881906497329  0.14735111218352803  1.0000
  H   H3        1.0  0.2999124640439839  0.34901414135140607  0.3861914544196414  1.0000
  H   H4        1.0  0.15037142452336  0.04947244497450787  0.28383925802202925  1.0000
  H   H5        1.0  0.25918765559643486  0.9048962317153704  0.23340822612486267  1.0000
  H   H6        1.0  0.3881004307284004  0.9783217408029417  0.2602827999102819  1.0000
  H   H7        1.0  0.4077716222952804  0.30956889586571945  0.5389040336791096  1.0000
  H   H8        1.0  0.536007218404  0.3850405410582578  0.5634508700166869  1.0000
  C   C15       1.0  0.9093420258529722  0.989086989796607  0.3951288401418991  1.0000
  C   C16       1.0  0.9871263958030714  0.9825946644469512  0.41815659905402147  1.0000
  C   C17       1.0  0.025711630826281473  0.8624362700729504  0.4295794199625158  1.0000
  C   C18       1.0  0.9871264560310133  0.7475123007265055  0.4181563245425568  1.0000
  C   C19       1.0  0.9093420378365186  0.7515720061437375  0.3951287443767517  1.0000
  C   C20       1.0  0.8708254714234575  0.8729420496392652  0.3837261298980479  1.0000
  Br  Br1       1.0  0.13151176185108437  0.8552599471647506  0.460901526558934  1.0000
  H   H9        1.0  0.8800647434422658  0.3188323015971182  0.38646076109104355  1.0000
  H   H10       1.0  0.018090881934552216  0.07049368661737776  0.42732367311905617  1.0000
  H   H11       1.0  0.01809097327872977  0.6554127451441764  0.42732302227707075  1.0000
  H   H12       1.0  0.810835172974863  0.8770110868627049  0.3659664293067739  1.0000
  H   H13       1.0  0.8800645186442665  0.4257983298907016  0.3864628949080344  1.0000
  C   C21       1.0  0.9112558368583862  0.3682815818073464  0.9717777538283983  1.0000
  C   C22       1.0  0.9501752176293601  0.4654014902702308  0.03608436015556604  1.0000
  C   C23       1.0  0.9824604406511407  0.5683928040802979  0.9518200297790638  1.0000
  C   C24       1.0  0.9769413662635212  0.5733255726054001  0.8012710150146725  1.0000
  C   C25       1.0  0.9396447434414388  0.476709934305674  0.7354853798618661  1.0000
  C   C26       1.0  0.907428224290534  0.37237741674412117  0.8184798684975223  1.0000
  C   C27       1.0  0.024853425240347393  0.6704909995775878  0.022329589499092473  1.0000
  C   C28       1.0  0.10737974939348494  0.6295287796499047  0.0388303530408276  1.0000
  H   H14       1.0  0.8775309571397751  0.16276816784771864  0.2701540076175215  1.0000
  H   H15       1.0  0.9540598862766071  0.46281021015016144  0.15274612861239834  1.0000
  H   H16       1.0  0.0022706762889193044  0.6514734171349794  0.7344723120553476  1.0000
  H   H17       1.0  0.9377113121454954  0.48186111167503554  0.6185425428074911  1.0000
  H   H18       1.0  0.818718632439926  0.22696000250963322  0.5520900359514789  1.0000
  H   H19       1.0  0.020738772105753256  0.7649367509322023  0.9565562714881839  1.0000
  H   H20       1.0  0.9998641010399593  0.6863803107729873  0.13061300731601122  1.0000
  H   H21       1.0  0.11272835251100588  0.5369177686400983  0.10749145384116798  1.0000
  H   H22       1.0  0.13381981739668003  0.6163256072102559  0.9312249927248581  1.0000
  H   H23       1.0  0.1375940694603548  0.7060288165241082  0.09090494266605442  1.0000
  Zn  Zn1       1.0  0.8270168312337388  0.3742373464086095  0.3964714666368587  1.0000
  Zn  Zn2       1.0  0.9916600427076613  0.3664213798792244  0.39378558224175064  1.0000
  C   C29       1.0  0.9081500505931602  0.3664312755615782  0.6584350438014139  1.0000
  C   C30       1.0  0.9105286206073588  0.3742290041585601  0.13182211724554205  1.0000
  C   C31       1.0  0.9093641394665434  0.6074185141127819  0.389383964885299  1.0000
  C   C32       1.0  0.9093144752052722  0.1332402088403477  0.4008732739389438  1.0000
  O   O1        1.0  0.9727658008992606  0.37325323092761953  0.1845151885019478  1.0000
  O   O2        1.0  0.9708732601014107  0.36147392962773517  0.6037030334363414  1.0000
  O   O3        1.0  0.9718528031673582  0.5560742196935753  0.38644239737097474  1.0000
  O   O4        1.0  0.9717862021403885  0.17865295229320854  0.40177571738988727  1.0000
  O   O5        1.0  0.8468906156163982  0.5620057766632083  0.38848133239769966  1.0000
  O   O6        1.0  0.845911072894541  0.3674070460329588  0.6057418915947566  1.0000
  O   O7        1.0  0.8478036215778586  0.3791862937043  0.18655231337562794  1.0000
  O   O8        1.0  0.8468240223272977  0.18458600630704214  0.40381295034997167  1.0000
