data_image0
_chemical_formula_structural       NC9NC5H8C9H8C9H8Zn2C4O8
_chemical_formula_sum              "N2 C36 H24 Zn2 O8"
_cell_length_a       17.807436237873137
_cell_length_b       9.275152443626249
_cell_length_c       9.275155815604963
_cell_angle_alpha    85.85171904572836
_cell_angle_beta     89.76311116066846
_cell_angle_gamma    88.96355956710404

_space_group_name_H-M_alt    "P 1"
_space_group_IT_number       1

loop_
  _space_group_symop_operation_xyz
  'x, y, z'

loop_
  _atom_site_type_symbol
  _atom_site_label
  _atom_site_symmetry_multiplicity
  _atom_site_fract_x
  _atom_site_fract_y
  _atom_site_fract_z
  _atom_site_occupancy
  N   N1        1.0  0.7101780673199234  0.5275669647720507  0.39341797455601935  1.0000
  C   C1        1.0  0.6493462437993246  0.4883863061894662  0.38132343146043923  1.0000
  C   C2        1.0  0.5736781413129788  0.43964988155293083  0.36627913284687463  1.0000
  C   C3        1.0  0.5547887349659939  0.3593620018717336  0.2500407603928352  1.0000
  C   C4        1.0  0.4813179705099225  0.3119180997782809  0.23534246164169081  1.0000
  C   C5        1.0  0.4256855868879071  0.34434253470950815  0.33684800988591124  1.0000
  C   C6        1.0  0.3476060699959035  0.2940502667843008  0.3213181489698427  1.0000
  C   C7        1.0  0.285998480386878  0.38508161442185895  0.34978031567697654  1.0000
  C   C8        1.0  0.2123842842134246  0.3374123707953951  0.3350979974389525  1.0000
  C   C9        1.0  0.1497435360410809  0.4314358157146858  0.3639533898597638  1.0000
  N   N2        1.0  0.0993933262812136  0.5070241707463925  0.38715234218636874  1.0000
  C   C10       1.0  0.1997925447206773  0.19842506082737676  0.29192639747481075  1.0000
  C   C11       1.0  0.2605426535290618  0.10737825196453299  0.26345497540625873  1.0000
  C   C12       1.0  0.3340343900139514  0.15460746996322938  0.2779140935766431  1.0000
  C   C13       1.0  0.4452700650881562  0.42518145024377363  0.453327711553283  1.0000
  C   C14       1.0  0.5187920279966471  0.4724124662537543  0.4678540371714379  1.0000
  H   H1        1.0  0.596791038456354  0.33372132045589553  0.17055114870711208  1.0000
  H   H2        1.0  0.46779097882249426  0.2515288273443952  0.14353865786699616  1.0000
  H   H3        1.0  0.2951665074881352  0.49358465369569915  0.38144103478662816  1.0000
  H   H4        1.0  0.1430914830438412  0.1605295604229282  0.2803034107557516  1.0000
  H   H5        1.0  0.2506766449841287  0.9997746788878573  0.23045895917063297  1.0000
  H   H6        1.0  0.3802244704022283  0.08142067172113476  0.25703519032079214  1.0000
  H   H7        1.0  0.4039862518941946  0.4502356465633299  0.5342559209082447  1.0000
  H   H8        1.0  0.5328506345667773  0.5341474228040819  0.5584971677192119  1.0000
  C   C15       1.0  0.9025786523249117  0.09379245741079378  0.3917920914242343  1.0000
  C   C16       1.0  0.8750824885619327  0.17692819991146713  0.26979551864363915  1.0000
  C   C17       1.0  0.8545598603873161  0.11149538341599996  0.14539431853905072  1.0000
  C   C18       1.0  0.8612094673609745  0.961761450160152  0.1405252574781337  1.0000
  C   C19       1.0  0.8872336066517695  0.8770063388909742  0.26151075698609483  1.0000
  C   C20       1.0  0.9069999033462371  0.9407873760855971  0.38879062262739494  1.0000
  C   C21       1.0  0.8404362977605224  0.8945954763152516  0.011692275172087818  1.0000
  C   C22       1.0  0.8230435896874853  0.8383262526933855  0.9038148268852897  1.0000
  C   C23       1.0  0.8019409684218037  0.7700414828423267  0.772924456849164  1.0000
  H   H9        1.0  0.011442952763718761  0.17217791661131043  0.6778691959976628  1.0000
  H   H10       1.0  0.8711248387135847  0.29365066453361965  0.2694058876619858  1.0000
  H   H11       1.0  0.834172495997869  0.17800699003439835  0.05238142489806141  1.0000
  H   H12       1.0  0.8903824110819122  0.760495475827119  0.25743958082670493  1.0000
  H   H13       1.0  0.9778975821781082  0.6434421440658104  0.5845150959643897  1.0000
  H   H14       1.0  0.8157148460429978  0.652708672821626  0.786166875539617  1.0000
  H   H15       1.0  0.7407493169736281  0.785683748875741  0.7541792470155082  1.0000
  H   H16       1.0  0.8333496989898467  0.8199285171976737  0.6791303762005021  1.0000
  C   C24       1.0  0.9033941967216143  0.5137172042372844  0.9670952097844139  1.0000
  C   C25       1.0  0.845009047029169  0.5870895589225855  0.035606853144432016  1.0000
  C   C26       1.0  0.7917043118772198  0.6697810737530401  0.9549039126730654  1.0000
  C   C27       1.0  0.7957971883852636  0.6808250159786391  0.8042172838678585  1.0000
  C   C28       1.0  0.8526669735207542  0.6067575806016146  0.7340243507107638  1.0000
  C   C29       1.0  0.9061843374204106  0.5208625520562098  0.813487497095069  1.0000
  C   C30       1.0  0.7409919301368124  0.7669659596581517  0.7212142239736394  1.0000
  C   C31       1.0  0.6951024183289258  0.8390971092301893  0.651683808042876  1.0000
  C   C32       1.0  0.6394237514252814  0.9266160370371568  0.5673089199942778  1.0000
  H   H17       1.0  0.0771067353726489  0.3881605386742766  0.07765918051832621  1.0000
  H   H18       1.0  0.8416140616327228  0.5832699383746818  0.15246687415878402  1.0000
  H   H19       1.0  0.7476680413096565  0.7263254731430113  0.010238309866239304  1.0000
  H   H20       1.0  0.8540900091367571  0.6134658494402081  0.616831685500661  1.0000
  H   H21       1.0  0.022061444631430227  0.43120672168265317  0.5383286560769931  1.0000
  H   H22       1.0  0.6547067856686722  0.9299541473361206  0.45104957073106133  1.0000
  H   H23       1.0  0.5832208661036297  0.8782129806248535  0.5834176232245776  1.0000
  H   H24       1.0  0.6381043528659357  0.038074884891834415  0.6034496307076096  1.0000
  Zn  Zn1       1.0  0.8224971897389967  0.5216349803919138  0.39161819658620534  1.0000
  Zn  Zn2       1.0  0.9870741633568101  0.512944499399357  0.38896400940072406  1.0000
  C   C33       1.0  0.9056252873413425  0.5137667792705685  0.6535216523659626  1.0000
  C   C34       1.0  0.9039478728946396  0.5208144264711703  0.1270606596356847  1.0000
  C   C35       1.0  0.906141391130864  0.7806390019273513  0.38361528877256057  1.0000
  C   C36       1.0  0.9034317041552962  0.25394047474189585  0.396967107107256  1.0000
  O   O1        1.0  0.9665897626218927  0.5198920351419782  0.17973929799914812  1.0000
  O   O2        1.0  0.9678935054914184  0.5080922051448757  0.5988281363495631  1.0000
  O   O3        1.0  0.9683094288301284  0.7235949571091183  0.38087684638017616  1.0000
  O   O4        1.0  0.9661737828218575  0.3043892955476104  0.3976904807832795  1.0000
  O   O5        1.0  0.8433975141118885  0.730190187210801  0.38289172610180744  1.0000
  O   O6        1.0  0.8429815995609394  0.5146891672861909  0.6008429330911833  1.0000
  O   O7        1.0  0.8416778507673026  0.5264889323974293  0.18175236226822733  1.0000
  O   O8        1.0  0.8412618712665317  0.31098618340032713  0.3997036531357725  1.0000
