data_image0
_chemical_formula_structural       NC8NC6H8C6BrH5C7H8Zn2C4O8
_chemical_formula_sum              "N2 C31 H21 Br1 Zn2 O8"
_cell_length_a       17.457602349358154
_cell_length_b       10.302969083221269
_cell_length_c       9.274345330872308
_cell_angle_alpha    85.12370452166175
_cell_angle_beta     92.44621323531219
_cell_angle_gamma    91.68807063265206

_space_group_name_H-M_alt    "P 1"
_space_group_IT_number       1

loop_
  _space_group_symop_operation_xyz
  'x, y, z'

loop_
  _atom_site_type_symbol
  _atom_site_label
  _atom_site_symmetry_multiplicity
  _atom_site_fract_x
  _atom_site_fract_y
  _atom_site_fract_z
  _atom_site_occupancy
  N   N1        1.0  0.7286733519526961  0.46314616755998705  0.4742474477443315  1.0000
  C   C1        1.0  0.667643712292027  0.41731920344423945  0.4624549263599844  1.0000
  C   C2        1.0  0.5917202141123492  0.36031609768556505  0.4477956294879273  1.0000
  C   C3        1.0  0.5328508576768178  0.3998768141963358  0.5309960608066358  1.0000
  C   C4        1.0  0.4583626470269305  0.3449864594212284  0.5170193150674911  1.0000
  C   C5        1.0  0.3958822784040968  0.3867548762857378  0.6051317273540382  1.0000
  C   C6        1.0  0.3215892966436876  0.40565515503330807  0.5431865699425593  1.0000
  C   C7        1.0  0.2627194462567161  0.4450311580516917  0.6265069221349182  1.0000
  C   C8        1.0  0.1869983878531398  0.4645544896255773  0.5621007094915265  1.0000
  N   N2        1.0  0.126131572716783  0.48024486939705135  0.5103182823191439  1.0000
  C   C9        1.0  0.2776481015568809  0.46574595195018165  0.7723373208596198  1.0000
  C   C10       1.0  0.3511546160298184  0.44723149021740105  0.8347130434020555  1.0000
  C   C11       1.0  0.41001077921164414  0.40803188899021503  0.7519011530439226  1.0000
  C   C12       1.0  0.4440389573468493  0.24986944001367117  0.4182503725571991  1.0000
  C   C13       1.0  0.5028947759239446  0.2105841721944508  0.3354942867587152  1.0000
  C   C14       1.0  0.5765957190592093  0.26558254779831536  0.35008194678644955  1.0000
  H   H1        1.0  0.5448917786785377  0.4745235617391719  0.6050130887689535  1.0000
  H   H2        1.0  0.3097084298803028  0.3914908543933835  0.429852201598935  1.0000
  H   H3        1.0  0.23251947119128852  0.49615671331761013  0.8376953804211693  1.0000
  H   H4        1.0  0.3625234698295591  0.4629558770458233  0.9476327733612047  1.0000
  H   H5        1.0  0.46628664390970165  0.3926829019870133  0.803118722843579  1.0000
  H   H6        1.0  0.387602760018326  0.2046322364038311  0.4064177304883825  1.0000
  H   H7        1.0  0.49137311618017904  0.13706293364043498  0.2601460979363257  1.0000
  H   H8        1.0  0.6217220680970329  0.23429835705710933  0.28529167287086143  1.0000
  C   C15       1.0  0.9274060946338376  0.09044810477351484  0.49228947767928366  1.0000
  C   C16       1.0  0.006818432810499653  0.09078310110775378  0.5238185378696474  1.0000
  C   C17       1.0  0.0462112276192117  0.9740114279907488  0.5394584616582099  1.0000
  C   C18       1.0  0.006818494148002063  0.8557007460346646  0.5238182695937206  1.0000
  C   C19       1.0  0.9274061068169055  0.852933123314254  0.4922893831059867  1.0000
  C   C20       1.0  0.8880834177372552  0.9709224741722722  0.476677170612541  1.0000
  Br  Br1       1.0  0.15422567583257596  0.9761214331645094  0.5823438016625295  1.0000
  H   H9        1.0  0.8975160604347852  0.4176236864293934  0.4804215905061504  1.0000
  H   H10       1.0  0.038430982376683964  0.18139994905272494  0.5363698193322188  1.0000
  H   H11       1.0  0.03843107528256651  0.7663190233905453  0.5363691776689836  1.0000
  H   H12       1.0  0.8268375676644915  0.9697260160495745  0.452360939661798  1.0000
  H   H13       1.0  0.8975158320682033  0.5245896696946474  0.4804237023657536  1.0000
  C   C21       1.0  0.9291410491153347  0.4746843888783918  0.06864443211564653  1.0000
  C   C22       1.0  0.883476511406312  0.5641675643807373  0.12975976789041677  1.0000
  C   C23       1.0  0.8332268843257962  0.6430128130895116  0.04316579551257638  1.0000
  C   C24       1.0  0.8268671472697142  0.6331885676406637  0.893644418248706  1.0000
  C   C25       1.0  0.8737208597724749  0.5474068364596447  0.8306327181648738  1.0000
  C   C26       1.0  0.9256711301128836  0.46869686693628254  0.9159344013844701  1.0000
  C   C27       1.0  0.7740097154282101  0.720100893681692  0.8003185929061898  1.0000
  H   H14       1.0  0.01718571093165666  0.1956916905038537  0.20497129481676857  1.0000
  H   H15       1.0  0.885429288127822  0.5712183322318689  0.2457539816342571  1.0000
  H   H16       1.0  0.7986087644897041  0.7108746403024897  0.093186273771946  1.0000
  H   H17       1.0  0.8708174298335407  0.5443219084423017  0.7139771631613852  1.0000
  H   H18       1.0  0.9877403944885059  0.2836730654779418  0.6576720256419413  1.0000
  H   H19       1.0  0.8053295838136479  0.8115887059723799  0.7640369692856916  1.0000
  H   H20       1.0  0.7236810392866808  0.7443813344842232  0.8613259984199972  1.0000
  H   H21       1.0  0.7524638041847712  0.6711961188109614  0.7037616157434581  1.0000
  Zn  Zn1       1.0  0.8433711748148028  0.4680769431007126  0.4846650411302884  1.0000
  Zn  Zn2       1.0  0.011433687234393641  0.4753033659602066  0.4999125001149747  1.0000
  C   C28       1.0  0.9263253258211769  0.46465652247972233  0.7557783297723821  1.0000
  C   C29       1.0  0.9284813708855796  0.4787255025908257  0.22879951957103417  1.0000
  C   C30       1.0  0.9274257010335225  0.708847693215304  0.48654019322744957  1.0000
  C   C31       1.0  0.9273809380102332  0.23453276903998121  0.49803772782722366  1.0000
  O   O1        1.0  0.9920388244434305  0.48281846314535826  0.2883353611783688  1.0000
  O   O2        1.0  0.9903234321886731  0.46604727319160344  0.7078145414441619  1.0000
  O   O3        1.0  0.9912111331761754  0.6632346842101464  0.49040276327585186  1.0000
  O   O4        1.0  0.9911510665505602  0.2856310597125875  0.5057470259747596  1.0000
  O   O5        1.0  0.8636537381471802  0.6577492468837751  0.47883051005970567  1.0000
  O   O6        1.0  0.8627660374712222  0.4605633962159381  0.696242211305961  1.0000
  O   O7        1.0  0.86448143688021  0.47733455318740803  0.2767612965573445  1.0000
  O   O8        1.0  0.8635936785412514  0.28014713970430805  0.49417306951485696  1.0000
