data_image0
_chemical_formula_structural       NC9NC5H8C8H10C8H10Zn2C4O8
_chemical_formula_sum              "N2 C34 H28 Zn2 O8"
_cell_length_a       17.807436237873137
_cell_length_b       9.275653711864159
_cell_length_c       9.275657083861812
_cell_angle_alpha    86.03202775307278
_cell_angle_beta     88.90332225934054
_cell_angle_gamma    87.8440138982238

_space_group_name_H-M_alt    "P 1"
_space_group_IT_number       1

loop_
  _space_group_symop_operation_xyz
  'x, y, z'

loop_
  _atom_site_type_symbol
  _atom_site_label
  _atom_site_symmetry_multiplicity
  _atom_site_fract_x
  _atom_site_fract_y
  _atom_site_fract_z
  _atom_site_occupancy
  N   N1        1.0  0.7069979176698598  0.532493507753891  0.4033093948879758  1.0000
  C   C1        1.0  0.6466612404642519  0.493349942401744  0.3909437692639617  1.0000
  C   C2        1.0  0.5716090456138552  0.44465965771698346  0.37556227383093765  1.0000
  C   C3        1.0  0.5544438909291061  0.3647282412165269  0.25873859184009174  1.0000
  C   C4        1.0  0.4815731109467476  0.3173294178952095  0.2437120216808486  1.0000
  C   C5        1.0  0.4248210251347022  0.3494425743394465  0.3454717362934894  1.0000
  C   C6        1.0  0.3473771189576563  0.2991979355542558  0.3295939122877112  1.0000
  C   C7        1.0  0.2846163100521766  0.39014199158212803  0.3586860232798139  1.0000
  C   C8        1.0  0.2116042823872992  0.3425177777472701  0.3436739024311526  1.0000
  C   C9        1.0  0.147776617656153  0.43645272486687414  0.3731797678995097  1.0000
  N   N2        1.0  0.0964721995807613  0.5119699300700369  0.3969016560192935  1.0000
  C   C10       1.0  0.2007710777676466  0.2036628723627203  0.29954059184059223  1.0000
  C   C11       1.0  0.2626746360459775  0.11270338349358378  0.27043911705279045  1.0000
  C   C12       1.0  0.3355704427740846  0.15988825621035763  0.2852249649079539  1.0000
  C   C13       1.0  0.44267373524636167  0.4299242865764983  0.46254058321813574  1.0000
  C   C14       1.0  0.5155992285078661  0.4771107512073376  0.47739367269040667  1.0000
  H   H1        1.0  0.5973255894299045  0.3393313239031177  0.17904824382526163  1.0000
  H   H2        1.0  0.46937697002155  0.2572216758738346  0.15146654594166886  1.0000
  H   H3        1.0  0.2924273482706593  0.49854792869139053  0.39109685404190153  1.0000
  H   H4        1.0  0.1445483404571849  0.1658030189807831  0.28765543872566  1.0000
  H   H5        1.0  0.2541667645252342  0.005201007277268355  0.23669868654123305  1.0000
  H   H6        1.0  0.3826721321887464  0.08676549291421187  0.2638402563895563  1.0000
  H   H7        1.0  0.4005053717066246  0.454730307283743  0.5436659991546293  1.0000
  H   H8        1.0  0.5283222071926398  0.5385677364932773  0.5684872718887359  1.0000
  C   C15       1.0  0.9038539954450032  0.09872403440521804  0.39872544213249816  1.0000
  C   C16       1.0  0.8868013640528126  0.1823684930457894  0.2704390233243399  1.0000
  C   C17       1.0  0.86294734033475  0.11776703829564505  0.14784355163024876  1.0000
  C   C18       1.0  0.8572682588855434  0.9674962307305113  0.15254314152016124  1.0000
  C   C19       1.0  0.8751445244266058  0.8826066412409976  0.27803786953437326  1.0000
  C   C20       1.0  0.8996232903319148  0.945727994496106  0.4014979406910466  1.0000
  C   C21       1.0  0.8459699457784317  0.2087445978019251  0.010768809939098789  1.0000
  C   C22       1.0  0.9166909245719334  0.22638057858207206  0.9168382369810635  1.0000
  H   H9        1.0  0.9711643855096764  0.360746826800181  0.5974261824749496  1.0000
  H   H10       1.0  0.8904173670257695  0.2989766923925645  0.26649578933877804  1.0000
  H   H11       1.0  0.8397023840773372  0.9156955582653195  0.058275349155250344  1.0000
  H   H12       1.0  0.8716732400032684  0.7663139263521558  0.27721503097507916  1.0000
  H   H13       1.0  0.905613923000646  0.6475256157290973  0.6391194915882268  1.0000
  H   H14       1.0  0.8024433811413304  0.15783602120849993  0.9487996566869996  1.0000
  H   H15       1.0  0.8230463557589253  0.3172471493751472  0.03669706996512767  1.0000
  H   H16       1.0  0.9602155211359518  0.2805890544286971  0.975637689595652  1.0000
  H   H17       1.0  0.9393832740690204  0.11912599742396579  0.8868018265277442  1.0000
  H   H18       1.0  0.9029750052781111  0.29364581193022166  0.8164499914721297  1.0000
  C   C23       1.0  0.9036638141090355  0.5199511016466494  0.9767532153515956  1.0000
  C   C24       1.0  0.9420443170903289  0.6278364330160859  0.04141297732605054  1.0000
  C   C25       1.0  0.9737580843475738  0.7422439957334568  0.9575231526988759  1.0000
  C   C26       1.0  0.9682116400886079  0.7477235454501128  0.806992074885712  1.0000
  C   C27       1.0  0.9314510970717843  0.6403983809353713  0.7408551177555509  1.0000
  C   C28       1.0  0.8998134754645988  0.5245009464352419  0.8234702236430596  1.0000
  C   C29       1.0  0.015584568712565527  0.8556594409061236  0.028403970535682665  1.0000
  C   C30       1.0  0.09833817510766996  0.8101566934214024  0.044755783779566016  1.0000
  H   H19       1.0  0.8710792424489583  0.29165720066576073  0.27438216383656777  1.0000
  H   H20       1.0  0.9459433636681736  0.6249579180045983  0.1580653231503597  1.0000
  H   H21       1.0  0.9931073403794531  0.8345338219044287  0.7404775397458976  1.0000
  H   H22       1.0  0.9294890840450819  0.6461205493994069  0.6239310118491654  1.0000
  H   H23       1.0  0.8119107440816744  0.3629644893908044  0.5565516119634326  1.0000
  H   H24       1.0  0.010945875568665553  0.9605741936339021  0.962974084175205  1.0000
  H   H25       1.0  0.9905070813638379  0.8733100300662533  0.13674516641344336  1.0000
  H   H26       1.0  0.10420063802698554  0.7072800559802763  0.11308012456791028  1.0000
  H   H27       1.0  0.12485150199767481  0.7954899926766865  0.9371024129682932  1.0000
  H   H28       1.0  0.12812802843611615  0.8951365081532261  0.09710854932636614  1.0000
  Zn  Zn1       1.0  0.8193917624352827  0.5265670431949385  0.4014685850163706  1.0000
  Zn  Zn2       1.0  0.9840783414415085  0.5178847024437896  0.3987542795409451  1.0000
  C   C31       1.0  0.9005682944200013  0.5178956950300344  0.6634037770841277  1.0000
  C   C32       1.0  0.9029035980965624  0.5265577762338676  0.13681920529025682  1.0000
  C   C33       1.0  0.9004452458052312  0.7855955775606895  0.3952289964014579  1.0000
  C   C34       1.0  0.9030265988204784  0.25885616437369285  0.40499405808936606  1.0000
  O   O1        1.0  0.9651461925463876  0.5254738417447642  0.18950872835729138  1.0000
  O   O2        1.0  0.9633190101693695  0.5123888435795929  0.6086537403973689  1.0000
  O   O3        1.0  0.963218797541128  0.7285599367223037  0.39210072640957727  1.0000
  O   O4        1.0  0.9652463494182759  0.3093027613006192  0.4060616352092239  1.0000
  O   O5        1.0  0.838223698259095  0.7351489873024948  0.39416123026677297  1.0000
  O   O6        1.0  0.8383239025787702  0.5189796264536892  0.6107141730568075  1.0000
  O   O7        1.0  0.8401510931388183  0.5320645650457696  0.1915674275369854  1.0000
  O   O8        1.0  0.8402512495676394  0.3158934748674451  0.4081204424434588  1.0000
