data_image0
_chemical_formula_structural       NC9NC5H8C6ClH5C6H6Zn2C4O8
_chemical_formula_sum              "N2 C30 H19 Cl1 Zn2 O8"
_cell_length_a       17.807436237873137
_cell_length_b       10.30297070629231
_cell_length_c       10.681121600428288
_cell_angle_alpha    85.56070620365333
_cell_angle_beta     89.39214167786866
_cell_angle_gamma    88.39001192287228

_space_group_name_H-M_alt    "P 1"
_space_group_IT_number       1

loop_
  _space_group_symop_operation_xyz
  'x, y, z'

loop_
  _atom_site_type_symbol
  _atom_site_label
  _atom_site_symmetry_multiplicity
  _atom_site_fract_x
  _atom_site_fract_y
  _atom_site_fract_z
  _atom_site_occupancy
  N   N1        1.0  0.7074119804326159  0.38732025249853796  0.6086722045623205  1.0000
  C   C1        1.0  0.6468244635858147  0.35214186193270236  0.5980420639042456  1.0000
  C   C2        1.0  0.5714602517595964  0.30838381811593485  0.5848193231340206  1.0000
  C   C3        1.0  0.5533689187862975  0.23699228699922648  0.4835673348025704  1.0000
  C   C4        1.0  0.48019415793554665  0.19439513840344036  0.4706492289069939  1.0000
  C   C5        1.0  0.4240620116382656  0.2228121123412301  0.5589518187400386  1.0000
  C   C6        1.0  0.3462961039150005  0.17765719342296138  0.5453023601696341  1.0000
  C   C7        1.0  0.2841197209714516  0.2593870219996173  0.57031472793567  1.0000
  C   C8        1.0  0.2108026552836738  0.21658690022907012  0.5574098143462427  1.0000
  C   C9        1.0  0.1475761819410937  0.30100721689199483  0.5827730870678514  1.0000
  N   N2        1.0  0.0967550856679668  0.3688753109475247  0.6031644577971198  1.0000
  C   C10       1.0  0.1990784277450661  0.09179905268117494  0.5194680886507799  1.0000
  C   C11       1.0  0.260397440874249  0.010055376295618146  0.49444763087502697  1.0000
  C   C12       1.0  0.3335950747673823  0.05246108462444332  0.5071572409158351  1.0000
  C   C13       1.0  0.4428447488668925  0.29469785017678607  0.660415205679967  1.0000
  C   C14       1.0  0.5160723811917761  0.3371046663216011  0.6731832208385493  1.0000
  H   H1        1.0  0.5957638916133746  0.21451471459014826  0.4144162736305119  1.0000
  H   H2        1.0  0.46728167065409754  0.14073057776018816  0.39069081159305075  1.0000
  H   H3        1.0  0.2926171500600687  0.35682050405078636  0.5981602617300177  1.0000
  H   H4        1.0  0.1426134158528977  0.05777397378233262  0.5092516619061738  1.0000
  H   H5        1.0  0.2512016677839941  0.9134417385383333  0.4654445668874767  1.0000
  H   H6        1.0  0.3802359323904334  0.98673723294823  0.4887892604035038  1.0000
  H   H7        1.0  0.4011666555846699  0.31663653784102586  0.7308145232903114  1.0000
  H   H8        1.0  0.5295132184988663  0.39198942813977045  0.7521372205526775  1.0000
  C   C15       1.0  0.9020871085989484  0.9968501798159951  0.6059237027414999  1.0000
  C   C16       1.0  0.9796625525650421  0.9900320666092348  0.6289469541166066  1.0000
  C   C17       1.0  0.01815341733975817  0.869692256904238  0.6403703894118917  1.0000
  C   C18       1.0  0.9796625519652737  0.7549240979676343  0.6289468952295214  1.0000
  C   C19       1.0  0.9020871166165282  0.7593351212489844  0.6059237743150909  1.0000
  C   C20       1.0  0.8636775398948249  0.8808726121687004  0.5945243490888128  1.0000
  Cl  Cl1       1.0  0.11506362966937167  0.862678325994088  0.6691318294560928  1.0000
  H   H9        1.0  0.8728657975421938  0.32672156196919966  0.5972505460746727  1.0000
  H   H10       1.0  0.010516191935262764  0.07784560179600986  0.6381037532068108  1.0000
  H   H11       1.0  0.010516162225412629  0.6626444103752246  0.6381036636543691  1.0000
  H   H12       1.0  0.8038490033444462  0.8852026207779751  0.5767680872895768  1.0000
  H   H13       1.0  0.8728657938784623  0.43369359546701636  0.5972507825619151  1.0000
  C   C21       1.0  0.9020871371411178  0.3780926140212084  0.23817848768910532  1.0000
  C   C22       1.0  0.8483145187689641  0.3084350920801724  0.17751666844343905  1.0000
  C   C23       1.0  0.8483144718636159  0.3084351775484513  0.04663452915407751  1.0000
  C   C24       1.0  0.9020870780816105  0.3780926804601328  0.9736689242009149  1.0000
  C   C25       1.0  0.9558153140887543  0.44769246869465595  0.03433079093392588  1.0000
  C   C26       1.0  0.9558153044768876  0.44769244901853544  0.1652230897329412  1.0000
  H   H14       1.0  0.9564655085085054  0.4485355331144456  0.5306669927145313  1.0000
  H   H15       1.0  0.8061650019584324  0.2538342340846209  0.23114975132549231  1.0000
  H   H16       1.0  0.8061649862682733  0.25383429593967377  0.0026457223219171766  1.0000
  H   H17       1.0  0.9979703350935046  0.5023005240475575  0.9807419655571201  1.0000
  H   H18       1.0  0.9979702972417184  0.5023004803291531  0.20916633357698045  1.0000
  H   H19       1.0  0.9564657429816625  0.44853506968402224  0.6687379636841944  1.0000
  Zn  Zn1       1.0  0.8197679891361879  0.3819939766176028  0.6070900303030731  1.0000
  Zn  Zn2       1.0  0.9843990587664136  0.37419100402681127  0.6047569272660889  1.0000
  C   C27       1.0  0.9020854329899595  0.3729206921087074  0.8346455221854268  1.0000
  C   C28       1.0  0.9020834126788492  0.3832658414251493  0.37720153281933033  1.0000
  C   C29       1.0  0.9020832612862456  0.6152093898264772  0.6009334801596671  1.0000
  C   C30       1.0  0.902085528205434  0.14097558656439602  0.6109136424063724  1.0000
  O   O1        1.0  0.964558795657751  0.3820351724304767  0.42297353631257395  1.0000
  O   O2        1.0  0.9645612225567365  0.3682281060450039  0.7871023869803191  1.0000
  O   O3        1.0  0.9645586266635678  0.5638793335291834  0.598378271428887  1.0000
  O   O4        1.0  0.9645613353734921  0.18638395689618137  0.6116975587639957  1.0000
  O   O5        1.0  0.8396056563486053  0.5698010264124178  0.6001493995947527  1.0000
  O   O6        1.0  0.8396082522383985  0.3741513587354064  0.7888734483744899  1.0000
  O   O7        1.0  0.8396058253894457  0.3879583798768864  0.4247430920834496  1.0000
  O   O8        1.0  0.8396083651021099  0.192307155056892  0.613467208424469  1.0000
