data_image0
_chemical_formula_structural       NC8NC6H8C6ClH5C6FH5Zn2C4O8
_chemical_formula_sum              "N2 C30 H18 Cl1 F1 Zn2 O8"
_cell_length_a       17.457602349358154
_cell_length_b       10.30297070629231
_cell_length_c       9.275646106892307
_cell_angle_alpha    84.95237181000358
_cell_angle_beta     92.91404810424501
_cell_angle_gamma    91.68807172504815

_space_group_name_H-M_alt    "P 1"
_space_group_IT_number       1

loop_
  _space_group_symop_operation_xyz
  'x, y, z'

loop_
  _atom_site_type_symbol
  _atom_site_label
  _atom_site_symmetry_multiplicity
  _atom_site_fract_x
  _atom_site_fract_y
  _atom_site_fract_z
  _atom_site_occupancy
  N   N1        1.0  0.722103395664594  0.4669847711222692  0.47351460971532133  1.0000
  C   C1        1.0  0.661022976029921  0.42118748517562854  0.46171641545826936  1.0000
  C   C2        1.0  0.5850363532057173  0.36422127238905233  0.44705006662617697  1.0000
  C   C3        1.0  0.5265252632293508  0.4035726468047873  0.5302904784866291  1.0000
  C   C4        1.0  0.45197686707160967  0.3487174673205433  0.516307009050408  1.0000
  C   C5        1.0  0.3898759162149619  0.39026418298835375  0.604461762227348  1.0000
  C   C6        1.0  0.3153161953197712  0.4093203148864937  0.5424868455600722  1.0000
  C   C7        1.0  0.2568051277753585  0.4484866741156228  0.6258472358829605  1.0000
  C   C8        1.0  0.1808067328006391  0.46817205084225577  0.5614100816413281  1.0000
  N   N2        1.0  0.1197169397835124  0.4839927144954428  0.5096027775035978  1.0000
  C   C9        1.0  0.2723617375016456  0.4688345497516462  0.7717477034372413  1.0000
  C   C10       1.0  0.3461368451535257  0.4501631514850666  0.8341533921639899  1.0000
  C   C11       1.0  0.40463641496147  0.41117191470825176  0.7513017079979085  1.0000
  C   C12       1.0  0.4372278711805055  0.25384897035308285  0.4174905974196468  1.0000
  C   C13       1.0  0.4957273366800711  0.2147719265923378  0.33469474461190307  1.0000
  C   C14       1.0  0.5694910959570078  0.2697335898037838  0.3492894218730782  1.0000
  H   H1        1.0  0.5388849069587544  0.4780331521129233  0.6043430801243048  1.0000
  H   H2        1.0  0.302947304011656  0.39544117016887914  0.42909802243012063  1.0000
  H   H3        1.0  0.2275145431738659  0.4990808626476446  0.8371371695921586  1.0000
  H   H4        1.0  0.3579919380648995  0.46560342537336696  0.9471273779320433  1.0000
  H   H5        1.0  0.4611328252370471  0.3956940649680356  0.8025438834240848  1.0000
  H   H6        1.0  0.38074072112495944  0.2086415457578632  0.4056522632923478  1.0000
  H   H7        1.0  0.4838812221702566  0.14144027933361647  0.2593103427177479  1.0000
  H   H8        1.0  0.6143384538614965  0.23861241911154885  0.2844680140281355  1.0000
  C   C15       1.0  0.9209138227032388  0.09424137687568757  0.49156525086649916  1.0000
  C   C16       1.0  0.00014298545652136063  0.09422085489977561  0.5265562079059174  1.0000
  C   C17       1.0  0.03945438133373069  0.9772538294993076  0.5439176859740955  1.0000
  C   C18       1.0  0.00014298482970942494  0.8591128868537331  0.5265561399696301  1.0000
  C   C19       1.0  0.9209138309085378  0.85672631824736  0.4915653342332478  1.0000
  C   C20       1.0  0.8816854559189397  0.974898149043066  0.47424038914169553  1.0000
  Cl  Cl1       1.0  0.13843048241601674  0.9787317105567377  0.5876296285970632  1.0000
  H   H9        1.0  0.8910695845729297  0.42155223320763824  0.4783839621209889  1.0000
  H   H10       1.0  0.031654348952387945  0.18473795850681873  0.5404728379861232  1.0000
  H   H11       1.0  0.031654318589589225  0.7695367653739582  0.540472731533334  1.0000
  H   H12       1.0  0.8205815212471784  0.9739856493596911  0.44725426472330976  1.0000
  H   H13       1.0  0.8910695808887925  0.5285242637617357  0.47838423428746935  1.0000
  C   C21       1.0  0.9208245430140941  0.47954350291936976  0.06771671990663175  1.0000
  C   C22       1.0  0.9910736474479942  0.4961173703599926  0.14615351753519557  1.0000
  C   C23       1.0  0.06037175583558341  0.5004602254648238  0.07699733002877096  1.0000
  C   C24       1.0  0.060637789641384776  0.4881751783258166  0.9286452207068838  1.0000
  C   C25       1.0  0.9915909411452686  0.47381743122904774  0.8483855832157845  1.0000
  C   C26       1.0  0.9210030972872569  0.47142417467416964  0.9154138084517793  1.0000
  F   F1        1.0  0.12755979900442282  0.5150554290850731  0.15453066081837563  1.0000
  H   H14       1.0  0.7429198240067121  0.36645804843207164  0.16472264654073987  1.0000
  H   H15       1.0  0.9924357595420331  0.502632138368075  0.2622043976031352  1.0000
  H   H16       1.0  0.11443916320720904  0.4910196583882793  0.8752129748869746  1.0000
  H   H17       1.0  0.9933405002033552  0.4676867403665852  0.7326114505351446  1.0000
  H   H18       1.0  0.8005614420960531  0.40060033518678084  0.6296365345700234  1.0000
  Zn  Zn1       1.0  0.8368460773598535  0.4718893347735651  0.483937209093809  1.0000
  Zn  Zn2       1.0  0.0049742463274375925  0.479077393232463  0.4991919949800485  1.0000
  C   C27       1.0  0.920967657778312  0.4677867835090259  0.7551807562527411  1.0000
  C   C28       1.0  0.9208545018932535  0.4831816597311551  0.2279487560675617  1.0000
  C   C29       1.0  0.9209086817510318  0.71265532625822  0.4858132991136608  1.0000
  C   C30       1.0  0.9209134205663017  0.23831155398653325  0.4973162849521131  1.0000
  O   O1        1.0  0.9846683202824766  0.4871248251796396  0.2875132028834968  1.0000
  O   O2        1.0  0.9847592293269043  0.469298212679639  0.7071939234649871  1.0000
  O   O3        1.0  0.9847107456499375  0.6670326065877323  0.48967771796466253  1.0000
  O   O4        1.0  0.9847167465658897  0.28939043914256546  0.5050292949574333  1.0000
  O   O5        1.0  0.8571035197475071  0.6615762864120167  0.4780999039031226  1.0000
  O   O6        1.0  0.8571520034048111  0.46384345304790475  0.6956160324446741  1.0000
  O   O7        1.0  0.8570610940458304  0.48167003692965005  0.2759335765470061  1.0000
  O   O8        1.0  0.857109520348903  0.2839356405701112  0.4934497768340296  1.0000
