data_image0
_chemical_formula_structural       NC9NC5H8C6NCH9C8H10Zn2C4O8
_chemical_formula_sum              "N3 C33 H27 Zn2 O8"
_cell_length_a       17.807436237873137
_cell_length_b       9.273386996610926
_cell_length_c       9.275657083861812
_cell_angle_alpha    85.7544876649096
_cell_angle_beta     88.90332225934054
_cell_angle_gamma    87.7895077601149

_space_group_name_H-M_alt    "P 1"
_space_group_IT_number       1

loop_
  _space_group_symop_operation_xyz
  'x, y, z'

loop_
  _atom_site_type_symbol
  _atom_site_label
  _atom_site_symmetry_multiplicity
  _atom_site_fract_x
  _atom_site_fract_y
  _atom_site_fract_z
  _atom_site_occupancy
  N   N1        1.0  0.7063013692813195  0.533450699279248  0.3958875590719393  1.0000
  C   C1        1.0  0.6459824835947161  0.494282684956298  0.3837115049624724  1.0000
  C   C2        1.0  0.5709524194347027  0.4455619884442559  0.36856581561732926  1.0000
  C   C3        1.0  0.5538235951481416  0.3655806469854903  0.2521292398992392  1.0000
  C   C4        1.0  0.4809743588616201  0.3181522184803558  0.23733222130597942  1.0000
  C   C5        1.0  0.424207676989455  0.3502854327199736  0.33893641253567774  1.0000
  C   C6        1.0  0.3467866079872499  0.30000941126190606  0.323301922324015  1.0000
  C   C7        1.0  0.28398446322269266  0.39101027071456995  0.3519535930474522  1.0000
  C   C8        1.0  0.210994081698066  0.3433563109175568  0.33717211532658364  1.0000
  C   C9        1.0  0.1471237216891175  0.43734992956487906  0.3662230556997399  1.0000
  N   N2        1.0  0.0957849795612419  0.5129143026212648  0.38957921548497065  1.0000
  C   C10       1.0  0.2002239893592141  0.20441467711424655  0.29371127630265703  1.0000
  C   C11       1.0  0.2621688905111518  0.11339837518100548  0.2650503165244664  1.0000
  C   C12       1.0  0.3350432507881724  0.16061271944859512  0.2796076489722015  1.0000
  C   C13       1.0  0.4420238065827097  0.4308174136286449  0.4556154881161747  1.0000
  C   C14       1.0  0.5149278526695715  0.47803335080460574  0.4702400544714096  1.0000
  H   H1        1.0  0.5967168370465069  0.34016786682248346  0.17256188865377853  1.0000
  H   H2        1.0  0.4688055380853381  0.2580069333170494  0.14537784617525062  1.0000
  H   H3        1.0  0.2917462288142966  0.4994839178948862  0.3838394159953875  1.0000
  H   H4        1.0  0.144018460095462  0.16653117656471905  0.2820094777105324  1.0000
  H   H5        1.0  0.2537098809311207  0.005828853255458899  0.23183051789948772  1.0000
  H   H6        1.0  0.3821781759344584  0.08744428386151748  0.2585770725534535  1.0000
  H   H7        1.0  0.3998441682195151  0.45563892811297757  0.5366207689839015  1.0000
  H   H8        1.0  0.5276228979478746  0.5395287219663691  0.561036018702783  1.0000
  C   C15       1.0  0.9033546037988113  0.09941029462695283  0.39340434331594265  1.0000
  C   C16       1.0  0.9171437011518963  0.1814892164762314  0.2628408733786163  1.0000
  C   C17       1.0  0.9238566560079102  0.11596271319158791  0.13238395554861926  1.0000
  C   C18       1.0  0.9168882543965592  0.9660123095833114  0.12915606218240439  1.0000
  C   C19       1.0  0.9044256309187767  0.8828982060589159  0.2592452753823078  1.0000
  C   C20       1.0  0.8987389103582579  0.9469433093219545  0.3920748755561505  1.0000
  N   N3        1.0  0.9229781346468361  0.8954684088196324  0.9960180686815039  1.0000
  C   C21       1.0  0.9361379883360891  0.9719483274110268  0.8551330185231176  1.0000
  H   H9        1.0  0.9176318583992216  0.36201808083930764  0.6298395891107467  1.0000
  H   H10       1.0  0.920984975130184  0.29792348448655726  0.2610101004971177  1.0000
  H   H11       1.0  0.933779866307785  0.1835385590532681  0.03430526273448109  1.0000
  H   H12       1.0  0.9008886617067378  0.7666719477510547  0.2570284723103562  1.0000
  H   H13       1.0  0.9248125153937311  0.8160103544848551  0.7427563807351525  1.0000
  H   H14       1.0  0.9176512479958059  0.783397514951001  0.9990935937889955  1.0000
  H   H15       1.0  0.8896618769857927  0.05284376779469713  0.8308394916956496  1.0000
  H   H16       1.0  0.9905335116335264  0.026633149734154093  0.8544846133181374  1.0000
  H   H17       1.0  0.938420865789717  0.893952931402141  0.7697558006626664  1.0000
  C   C22       1.0  0.9029729664903308  0.520900459217231  0.9693921221608268  1.0000
  C   C23       1.0  0.9413044334702758  0.6288531754887079  0.033529397604453504  1.0000
  C   C24       1.0  0.9729662002439661  0.7433321968771371  0.9490854994087417  1.0000
  C   C25       1.0  0.9674172654220676  0.748815169106531  0.7985278842444323  1.0000
  C   C26       1.0  0.9307055037997581  0.6414229695685345  0.7329107007680764  1.0000
  C   C27       1.0  0.8991205598521049  0.5254531458272416  0.8160870956437654  1.0000
  C   C28       1.0  0.014741135062306565  0.8568184810467814  0.019417048482702315  1.0000
  C   C29       1.0  0.0975154233495521  0.8112873126623619  0.035989230634708935  1.0000
  H   H18       1.0  0.8704921588906148  0.2924639664496862  0.268126693503129  1.0000
  H   H19       1.0  0.9452047883897103  0.6259728625641059  0.15019568402015926  1.0000
  H   H20       1.0  0.9922735087378146  0.8356796670374895  0.7315929286488525  1.0000
  H   H21       1.0  0.9287408899351388  0.6471487120843573  0.6159588825127402  1.0000
  H   H22       1.0  0.8112912499605447  0.36381579352488846  0.5499508018378663  1.0000
  H   H23       1.0  0.010054756103375695  0.9617987632607778  0.9534790620451368  1.0000
  H   H24       1.0  0.9896556251742508  0.8744800947197566  0.1276727629054748  1.0000
  H   H25       1.0  0.10342464572048393  0.7083464187366126  0.104811800948027  1.0000
  H   H26       1.0  0.12403541654301442  0.7966114511338722  0.9284068903657121  1.0000
  H   H27       1.0  0.1272666516836929  0.896320205569118  0.08793044061574284  1.0000
  Zn  Zn1       1.0  0.8186979077412455  0.52752053306569  0.3940754509512412  1.0000
  Zn  Zn2       1.0  0.9833884330418138  0.5188327693467143  0.39140319388073763  1.0000
  C   C30       1.0  0.89987838102396  0.5188437687989005  0.6560526381870422  1.0000
  C   C31       1.0  0.9022097476145412  0.5275112603164986  0.12942611610483734  1.0000
  C   C32       1.0  0.8996336575565099  0.786710855991501  0.3865813922560286  1.0000
  C   C33       1.0  0.9024544239771515  0.25964244271424386  0.3988974425273981  1.0000
  O   O1        1.0  0.9644528347338737  0.526426648804686  0.18212088864521214  1.0000
  O   O2        1.0  0.9626315997454349  0.5133334777831273  0.6013292710731859  1.0000
  O   O3        1.0  0.9624331331110163  0.7296395908377247  0.383729344747195  1.0000
  O   O4        1.0  0.9646512456061677  0.3101205484565861  0.39972070777384516  1.0000
  O   O5        1.0  0.837435038976124  0.7362327569220559  0.3857579379624585  1.0000
  O   O6        1.0  0.8376334965146148  0.5199283772433501  0.6033577847012266  1.0000
  O   O7        1.0  0.8394547397131606  0.5330214886546083  0.18414766908202007  1.0000
  O   O8        1.0  0.8396531501468116  0.3167153785662489  0.4017475963123365  1.0000
