data_image0
_chemical_formula_structural       NC8NC6H8C7F3H5C6FH5Zn2C4O8
_chemical_formula_sum              "N2 C31 H18 F4 Zn2 O8"
_cell_length_a       17.457602349358154
_cell_length_b       9.27228830945605
_cell_length_c       9.275646106892307
_cell_angle_alpha    84.65403301377597
_cell_angle_beta     92.91404810424501
_cell_angle_gamma    91.12935064675003

_space_group_name_H-M_alt    "P 1"
_space_group_IT_number       1

loop_
  _space_group_symop_operation_xyz
  'x, y, z'

loop_
  _atom_site_type_symbol
  _atom_site_label
  _atom_site_symmetry_multiplicity
  _atom_site_fract_x
  _atom_site_fract_y
  _atom_site_fract_z
  _atom_site_occupancy
  N   N1        1.0  0.713416216799756  0.630493409258045  0.4641924805903199  1.0000
  C   C1        1.0  0.652606999172339  0.5795916041624283  0.4526853106312516  1.0000
  C   C2        1.0  0.5769577184183948  0.5162759949432218  0.4383809603705231  1.0000
  C   C3        1.0  0.5182135977829131  0.5600134337313674  0.5213713092441121  1.0000
  C   C4        1.0  0.4439900425950462  0.4990441514502004  0.5077364235671733  1.0000
  C   C5        1.0  0.3816430607247455  0.545221622004894  0.5956271632002788  1.0000
  C   C6        1.0  0.3069704933777511  0.5664017310813496  0.5335311520774402  1.0000
  C   C7        1.0  0.2482274907956981  0.6099335330774085  0.6166426551144637  1.0000
  C   C8        1.0  0.17211252311210531  0.6318130219742033  0.5520804078062003  1.0000
  N   N2        1.0  0.11092904341354791  0.6493970407891199  0.5001725693805068  1.0000
  C   C9        1.0  0.2636636046322874  0.6325493623416465  0.7624138196740355  1.0000
  C   C10       1.0  0.33754928042338167  0.6117968689180098  0.8249381580207469  1.0000
  C   C11       1.0  0.39627974823020723  0.5684597083455929  0.7423342483040889  1.0000
  C   C12       1.0  0.4298028382221761  0.39360170780893067  0.40952286507847235  1.0000
  C   C13       1.0  0.4885337098517446  0.3501691762929826  0.32697533199083195  1.0000
  C   C14       1.0  0.5619719975843096  0.41125681086983423  0.3412207488292216  1.0000
  H   H1        1.0  0.530132301878374  0.6427732316139729  0.5949507427488534  1.0000
  H   H2        1.0  0.2946837914795237  0.5509756309379263  0.42023052562256624  1.0000
  H   H3        1.0  0.2186372979269958  0.6661668986665494  0.827611082037937  1.0000
  H   H4        1.0  0.3493129392424388  0.6289581001097648  0.9378140267328192  1.0000
  H   H5        1.0  0.4528678151144848  0.5512567131354906  0.7936747795664647  1.0000
  H   H6        1.0  0.3735833971375805  0.3433555094140788  0.39797180690507594  1.0000
  H   H7        1.0  0.4771218501131656  0.2686640578356796  0.252056924766936  1.0000
  H   H8        1.0  0.6070036485923183  0.37666690598400177  0.27659710416316496  1.0000
  C   C15       1.0  0.9144339527350226  0.21620441347073327  0.4846117639524179  1.0000
  C   C16       1.0  0.950847265505017  0.30116082324825366  0.3739006616360734  1.0000
  C   C17       1.0  0.9796843937811528  0.23818465988208137  0.25747131917161337  1.0000
  C   C18       1.0  0.9718263033423246  0.08870461406441832  0.24753370190083368  1.0000
  C   C19       1.0  0.9382114352021663  0.002179249082993051  0.3603353928882229  1.0000
  C   C20       1.0  0.9099187195707045  0.06367513571937966  0.4797665217715701  1.0000
  C   C21       1.0  0.004946185708672113  0.020089678122794163  0.12374520794717458  1.0000
  F   F1        1.0  0.004248869192487348  0.11597436595129063  3.290172825742843e-05  1.0000
  F   F2        1.0  0.9627014830074071  0.8980209063789799  0.092406781699792  1.0000
  F   F3        1.0  0.0797509077853007  0.9807565252167209  0.16177368342622156  1.0000
  H   H9        1.0  0.7855483253252359  0.2898847625112482  0.7325752236549459  1.0000
  H   H10       1.0  0.9556858567479556  0.41763927123645717  0.3758321860255631  1.0000
  H   H11       1.0  0.00760930801760118  0.30690280763677147  0.17434614115169778  1.0000
  H   H12       1.0  0.9357596784197075  0.8856584359150944  0.35686782318094856  1.0000
  H   H13       1.0  0.8742903233936012  0.9285677509799474  0.826108260270819  1.0000
  C   C22       1.0  0.9120629939502022  0.6444519245929698  0.058314784827428134  1.0000
  C   C23       1.0  0.982213951386415  0.6628730985272973  0.13664626184501993  1.0000
  C   C24       1.0  0.05148634228884563  0.6677000038675431  0.06746247714954778  1.0000
  C   C25       1.0  0.05182512559004726  0.6540456778057584  0.9191884346201662  1.0000
  C   C26       1.0  0.9828633006876187  0.6380876307463017  0.8390200351398591  1.0000
  C   C27       1.0  0.9122896291974262  0.6354276242375727  0.9060634686091458  1.0000
  F   F4        1.0  0.11858795569582647  0.6839219741143032  0.14490306098265227  1.0000
  H   H14       1.0  0.734827943496633  0.518762079780585  0.15603932642581042  1.0000
  H   H15       1.0  0.983537484378569  0.6701139959852151  0.2526557430451688  1.0000
  H   H16       1.0  0.10560965473623818  0.6572072007376315  0.8657381132135447  1.0000
  H   H17       1.0  0.9846491644225742  0.6312736192840043  0.7232848606631301  1.0000
  H   H18       1.0  0.792267378061147  0.5567098312681236  0.6207362532350356  1.0000
  Zn  Zn1       1.0  0.8281298546886094  0.6359446306109473  0.47458391333602457  1.0000
  Zn  Zn2       1.0  0.996215457468219  0.6439338627920206  0.4897930218502622  1.0000
  C   C28       1.0  0.9122757295628378  0.6313848131338666  0.7458535306446834  1.0000
  C   C29       1.0  0.9120714084210048  0.648495586681517  0.21852370188838988  1.0000
  C   C30       1.0  0.9107666929274938  0.9035461558734674  0.4749300272404384  1.0000
  C   C31       1.0  0.9135803969578513  0.3763325067365997  0.4894472869703461  1.0000
  O   O1        1.0  0.9758618762041286  0.6528782533607695  0.2780630913907143  1.0000
  O   O2        1.0  0.9760583507420705  0.6330647046704092  0.6978570933005843  1.0000
  O   O3        1.0  0.974838925088456  0.8528383740344987  0.4790843610872695  1.0000
  O   O4        1.0  0.9770812444175787  0.43310459274499524  0.4968357101276235  1.0000
  O   O5        1.0  0.8472640103798725  0.8467738979332917  0.4675412198609399  1.0000
  O   O6        1.0  0.8484834267726072  0.6270019630498367  0.6863138651988199  1.0000
  O   O7        1.0  0.8482869520895835  0.6468154799321795  0.26651812815463005  1.0000
  O   O8        1.0  0.8495063203838208  0.42704180784340884  0.4852908551702213  1.0000
