data_image0
_chemical_formula_structural       NC8NC6H8C9H8C6NH7Zn2C4O8
_chemical_formula_sum              "N3 C33 H23 Zn2 O8"
_cell_length_a       17.457602349358154
_cell_length_b       9.275152443626249
_cell_length_c       9.274774538082514
_cell_angle_alpha    84.86265069898315
_cell_angle_beta     93.23827242343725
_cell_angle_gamma    92.27213218982278

_space_group_name_H-M_alt    "P 1"
_space_group_IT_number       1

loop_
  _space_group_symop_operation_xyz
  'x, y, z'

loop_
  _atom_site_type_symbol
  _atom_site_label
  _atom_site_symmetry_multiplicity
  _atom_site_fract_x
  _atom_site_fract_y
  _atom_site_fract_z
  _atom_site_occupancy
  N   N1        1.0  0.726142943835586  0.6273439975003643  0.468331886616727  1.0000
  C   C1        1.0  0.6647550852963312  0.5764160560874101  0.4566828487142145  1.0000
  C   C2        1.0  0.5883860740769202  0.5130679556654074  0.44220203406054814  1.0000
  C   C3        1.0  0.5303621124121621  0.5569808827798102  0.5253298267133821  1.0000
  C   C4        1.0  0.4554459233716756  0.4959806051141753  0.5115250456327962  1.0000
  C   C5        1.0  0.39386010187378095  0.5423439204454548  0.5995609543000859  1.0000
  C   C6        1.0  0.3192243112312002  0.5633948920731795  0.537509752742124  1.0000
  C   C7        1.0  0.26119964128585443  0.6071024277428898  0.6207581620750362  1.0000
  C   C8        1.0  0.1851213965533343  0.6288476445985312  0.5562421155625437  1.0000
  N   N2        1.0  0.1239673670312234  0.6463237088434175  0.5043714032005826  1.0000
  C   C9        1.0  0.2773218506948273  0.6300243186796339  0.7666222666880247  1.0000
  C   C10       1.0  0.3511766223706053  0.6094018765506999  0.8291030577925966  1.0000
  C   C11       1.0  0.4091923841214356  0.5658900527113764  0.7463628828350586  1.0000
  C   C12       1.0  0.4398332255795517  0.3903283232282124  0.41300179508076496  1.0000
  C   C13       1.0  0.4978485447009651  0.346721242625575  0.3303177475161836  1.0000
  C   C14       1.0  0.5719825921860522  0.40784115541096355  0.34473351374283534  1.0000
  H   H1        1.0  0.5433889647247548  0.6398980382918844  0.5991515861304635  1.0000
  H   H2        1.0  0.30642732183951843  0.547730992089372  0.4241427831562856  1.0000
  H   H3        1.0  0.2328533713580965  0.663779688853797  0.8319254709078938  1.0000
  H   H4        1.0  0.3634678014256979  0.626800088210385  0.9420499318849112  1.0000
  H   H5        1.0  0.4657533392437174  0.5487938398192431  0.7976672110417407  1.0000
  H   H6        1.0  0.3830420104865817  0.3400559230153162  0.4013106553539991  1.0000
  H   H7        1.0  0.4853378507565277  0.26505601405360246  0.25516016627484484  1.0000
  H   H8        1.0  0.6164477821027343  0.37311457835000295  0.2800013858470962  1.0000
  C   C15       1.0  0.9227990582396032  0.2130810809797512  0.48762076454876446  1.0000
  C   C16       1.0  0.8947143666606733  0.295548072677732  0.3624607118524945  1.0000
  C   C17       1.0  0.8737578286116657  0.23019437922680486  0.2356507353701287  1.0000
  C   C18       1.0  0.8805552851651879  0.08121825500636892  0.23149764256887084  1.0000
  C   C19       1.0  0.9071355583450353  0.9970003642032474  0.35548514520936236  1.0000
  C   C20       1.0  0.9273185749346836  0.06057576738019099  0.4850956720892048  1.0000
  C   C21       1.0  0.8593433764367105  0.01418288830665615  0.10022231782434998  1.0000
  C   C22       1.0  0.841583327738243  0.9580231865530568  0.9902999607244101  1.0000
  C   C23       1.0  0.8200350114453394  0.8898713408316896  0.8569284937448653  1.0000
  H   H9        1.0  0.03402512504000699  0.2975295611736062  0.7859416828226753  1.0000
  H   H10       1.0  0.8906692492008496  0.41187652382499884  0.3616402634100977  1.0000
  H   H11       1.0  0.8529345038811624  0.29625447638027214  0.14028858994048066  1.0000
  H   H12       1.0  0.9103546579471244  0.8808789655515761  0.3517504822526072  1.0000
  H   H13       1.0  0.9997528370964078  0.7670157542310284  0.6888073538440798  1.0000
  H   H14       1.0  0.8341113947494154  0.7737036914651516  0.8716872664417283  1.0000
  H   H15       1.0  0.7574930130321157  0.8996421260479224  0.8315039868483272  1.0000
  H   H16       1.0  0.8521534664457273  0.9445655309711578  0.7664151264427508  1.0000
  C   C24       1.0  0.9237008609281234  0.6404534251691949  0.062406123296958604  1.0000
  C   C25       1.0  0.9785481515958758  0.7282039306032109  0.133816474947847  1.0000
  C   C26       1.0  0.03677589752596311  0.8042319657429773  0.05807279926298348  1.0000
  C   C27       1.0  0.04062655315598018  0.792864143570349  0.9094842285498093  1.0000
  C   C28       1.0  0.9860424950568413  0.7083042211937078  0.8363841541134485  1.0000
  C   C29       1.0  0.9264167591443639  0.6332033491486284  0.9103103457861876  1.0000
  N   N3        1.0  0.09250336856260444  0.8918237586570079  0.13256882802949965  1.0000
  H   H17       1.0  0.8074538271283613  0.3528936975248518  0.17877218055514787  1.0000
  H   H18       1.0  0.9772028671276234  0.7349818679569771  0.24969103581084107  1.0000
  H   H19       1.0  0.08557839389437927  0.850747151372141  0.849832665613961  1.0000
  H   H20       1.0  0.9894441258606643  0.7044535938054302  0.7205331617817343  1.0000
  H   H21       1.0  0.845786169274639  0.44380226236445464  0.6375667735835204  1.0000
  H   H22       1.0  0.09032249519588742  0.9007665510852301  0.24370984930472828  1.0000
  H   H23       1.0  0.13634118100853  0.9485191399771211  0.07710895744591206  1.0000
  Zn  Zn1       1.0  0.840946484985041  0.6328171911771912  0.4787404598746934  1.0000
  Zn  Zn2       1.0  0.009163786398235674  0.6408385829214764  0.49397468493566143  1.0000
  C   C30       1.0  0.9258710319076007  0.6288250559359814  0.7500552667794196  1.0000
  C   C31       1.0  0.92424108656682  0.6448326252742467  0.2226601806626527  1.0000
  C   C32       1.0  0.9264419065914701  0.9004302058485385  0.4798196141158939  1.0000
  C   C33       1.0  0.9236701454831783  0.3732257382574713  0.49289591026301083  1.0000
  O   O1        1.0  0.9882599468685576  0.649340105785758  0.28222423402705865  1.0000
  O   O2        1.0  0.9895252039586062  0.6304045411042178  0.702053225394508  1.0000
  O   O3        1.0  0.9899853367326334  0.849729080703189  0.4838359415002602  1.0000
  O   O4        1.0  0.9877997564016839  0.43001557469790663  0.5004414044447347  1.0000
  O   O5        1.0  0.8623104575772679  0.8436401966650893  0.47227373515932825  1.0000
  O   O6        1.0  0.8618503337986877  0.6243173914346647  0.690490936910451  1.0000
  O   O7        1.0  0.8605850709318013  0.6432529206746418  0.2706602099526243  1.0000
  O   O8        1.0  0.8601248807534488  0.42392837833999986  0.48887748864058045  1.0000
