data_image0
_chemical_formula_structural       NC8NC6H8C7OH6C6SCH8Zn2C4O8
_chemical_formula_sum              "N2 C32 H22 O9 S1 Zn2"
_cell_length_a       17.457602349358154
_cell_length_b       9.274078303013075
_cell_length_c       10.302812801239593
_cell_angle_alpha    85.73623522774189
_cell_angle_beta     92.87590592568559
_cell_angle_gamma    91.09880916489897

_space_group_name_H-M_alt    "P 1"
_space_group_IT_number       1

loop_
  _space_group_symop_operation_xyz
  'x, y, z'

loop_
  _atom_site_type_symbol
  _atom_site_label
  _atom_site_symmetry_multiplicity
  _atom_site_fract_x
  _atom_site_fract_y
  _atom_site_fract_z
  _atom_site_occupancy
  N   N1        1.0  0.713715945977938  0.6127790090313046  0.6306824421542767  1.0000
  C   C1        1.0  0.6529133140575424  0.5617978807024027  0.6199517038555409  1.0000
  C   C2        1.0  0.5772722226601136  0.49838370051834424  0.6066122190945842  1.0000
  C   C3        1.0  0.518502840088831  0.5429668201335978  0.6815898209898974  1.0000
  C   C4        1.0  0.4442871334035238  0.48190410213300394  0.6688700399249303  1.0000
  C   C5        1.0  0.3819134077403228  0.5289773096594212  0.7482738342944881  1.0000
  C   C6        1.0  0.30725603566174037  0.5494790446857512  0.6925754763143359  1.0000
  C   C7        1.0  0.24848775279471502  0.5938579900918874  0.7676605239011967  1.0000
  C   C8        1.0  0.1723885936338037  0.6150322822875318  0.7097489638190562  1.0000
  N   N2        1.0  0.11121782441911442  0.6320493311703248  0.6631882040718158  1.0000
  C   C9        1.0  0.2638832217683489  0.6180051083273714  0.8989529135838934  1.0000
  C   C10       1.0  0.3377535580288842  0.5979351828488904  0.9550397501304342  1.0000
  C   C11       1.0  0.3965091566217128  0.553756112952162  0.8804127437778972  1.0000
  C   C12       1.0  0.4301335159796189  0.37550627099537537  0.5797384425829564  1.0000
  C   C13       1.0  0.4888895098349135  0.3312325104693712  0.5051614362732155  1.0000
  C   C14       1.0  0.5623197772078268  0.3924199742464731  0.5184312836059084  1.0000
  H   H1        1.0  0.5303961227291946  0.6264391880715665  0.7483933422625992  1.0000
  H   H2        1.0  0.2950007770071809  0.532860929492458  0.5905445357780148  1.0000
  H   H3        1.0  0.218837120334559  0.6522876402787801  0.9578498159987545  1.0000
  H   H4        1.0  0.34948576820089416  0.6162824432968141  0.05670156197816334  1.0000
  H   H5        1.0  0.4530846389517222  0.5371137314107448  0.9264660444673147  1.0000
  H   H6        1.0  0.3739206272921827  0.32517972787383176  0.5689731184297593  1.0000
  H   H7        1.0  0.47750334433849423  0.24899951905303475  0.4371628483315906  1.0000
  H   H8        1.0  0.6073711359828068  0.3571719974435448  0.4600431038864923  1.0000
  C   C15       1.0  0.9147566924070593  0.19905771595709054  0.6459583826162267  1.0000
  C   C16       1.0  0.8999262164402558  0.28180305440171116  0.5275485496692851  1.0000
  C   C17       1.0  0.8784686921898994  0.21566061092856614  0.413031383544465  1.0000
  C   C18       1.0  0.8716378323190486  0.06468581391735562  0.41683544423867347  1.0000
  C   C19       1.0  0.8873314322813602  0.9809237196694212  0.5328996360558311  1.0000
  C   C20       1.0  0.9101844814029334  0.0457598330203397  0.647924100924353  1.0000
  C   C21       1.0  0.862667098363424  0.30581227447185744  0.29091133464743835  1.0000
  O   O1        1.0  0.8429543917223297  0.24955960070209127  0.18650318192824167  1.0000
  H   H9        1.0  0.912397478207151  0.2755711479202052  0.9654157992260448  1.0000
  H   H10       1.0  0.9033569798174776  0.3988349854051989  0.525028933357726  1.0000
  H   H11       1.0  0.8548598919561123  0.011020892150902295  0.32975487231262557  1.0000
  H   H12       1.0  0.8833333795891462  0.8642927531353305  0.5318782011466578  1.0000
  H   H13       1.0  0.911953728710405  0.7469552676974235  0.8627785578871436  1.0000
  H   H14       1.0  0.8679619940722589  0.42238354702901537  0.2899801140599847  1.0000
  C   C22       1.0  0.9124706030309447  0.622408794286758  0.2656927651637635  1.0000
  C   C23       1.0  0.885827207200955  0.7649238795556306  0.25271397562420805  1.0000
  C   C24       1.0  0.8723737013439677  0.8356126636943095  0.12926389049101727  1.0000
  C   C25       1.0  0.8858271388704202  0.7649237248669813  0.01756279992905707  1.0000
  C   C26       1.0  0.9124705533324642  0.6224087821594075  0.028189664702358064  1.0000
  C   C27       1.0  0.9256384920724852  0.5518339395002794  0.15278390238313388  1.0000
  S   S1        1.0  0.8384897739114485  0.017811138985080355  0.11418955182320545  1.0000
  C   C28       1.0  0.7378705797296757  0.9625502654840397  0.10933436263234797  1.0000
  H   H15       1.0  0.9224828090793046  0.5686819032500539  0.5978958339552858  1.0000
  H   H16       1.0  0.87524340081518  0.8215312308682974  0.33812532644439575  1.0000
  H   H17       1.0  0.8752432483740842  0.8215310157503659  0.9227750004225777  1.0000
  H   H18       1.0  0.9461758671264768  0.44189550576258463  0.1618874395524046  1.0000
  H   H19       1.0  0.9224813849662118  0.5686810855435795  0.7048801299160834  1.0000
  H   H20       1.0  0.7246159630105381  0.8977563110398592  0.024426928509231782  1.0000
  H   H21       1.0  0.7246162836482437  0.8977577839446873  0.20066165078877551  1.0000
  H   H22       1.0  0.701834340143594  0.06033745750640129  0.09972594751480002  1.0000
  Zn  Zn1       1.0  0.8284264224920171  0.6183361415998776  0.6400703900051588  1.0000
  Zn  Zn2       1.0  0.9965073974835619  0.6264803784851649  0.6538108579488038  1.0000
  C   C29       1.0  0.9124998675594141  0.6166654089934875  0.884047963801605  1.0000
  C   C30       1.0  0.9124357780323598  0.6281530190535709  0.40983356584703645  1.0000
  C   C31       1.0  0.9110447678993934  0.8857149349711844  0.6423786487369227  1.0000
  C   C32       1.0  0.9138908296914291  0.35910175820910384  0.6515029414186484  1.0000
  O   O2        1.0  0.9762099784563097  0.6331652392890188  0.4634229566727841  1.0000
  O   O3        1.0  0.9762952438980589  0.6178333885218454  0.8408868939594287  1.0000
  O   O4        1.0  0.9751193726564413  0.835094241680407  0.6457371453801901  1.0000
  O   O5        1.0  0.9773857922875909  0.41590439366443377  0.658572603243363  1.0000
  O   O6        1.0  0.8475479703301919  0.8289121236429495  0.6353086400148265  1.0000
  O   O7        1.0  0.848723832214965  0.6116530025734992  0.8304583233913636  1.0000
  O   O8        1.0  0.8486385670956126  0.6269848031046574  0.4529928250847435  1.0000
  O   O9        1.0  0.849814380979434  0.4097239471684373  0.6481425689682099  1.0000
