data_image0
_chemical_formula_structural       NC8NC6H8C6NH7C7H8Zn2C4O8
_chemical_formula_sum              "N3 C31 H23 Zn2 O8"
_cell_length_a       17.457602349358154
_cell_length_b       9.274771166103582
_cell_length_c       9.274345330872308
_cell_angle_alpha    85.02343958886169
_cell_angle_beta     92.44621323531219
_cell_angle_gamma    92.29117059398062

_space_group_name_H-M_alt    "P 1"
_space_group_IT_number       1

loop_
  _space_group_symop_operation_xyz
  'x, y, z'

loop_
  _atom_site_type_symbol
  _atom_site_label
  _atom_site_symmetry_multiplicity
  _atom_site_fract_x
  _atom_site_fract_y
  _atom_site_fract_z
  _atom_site_occupancy
  N   N1        1.0  0.737724395265707  0.6261282464888678  0.4720732044458118  1.0000
  C   C1        1.0  0.6764112693435066  0.5751965470786007  0.46034878218363695  1.0000
  C   C2        1.0  0.600135149128767  0.5118437785945371  0.4457741922420546  1.0000
  C   C3        1.0  0.5415105158566293  0.5558112235400989  0.5289158361171946  1.0000
  C   C4        1.0  0.46668275267976206  0.4948065485878699  0.5150206577488765  1.0000
  C   C5        1.0  0.40446076408657866  0.54122761299032  0.6030710019369172  1.0000
  C   C6        1.0  0.33028469972332686  0.5622332225591784  0.541097758606671  1.0000
  C   C7        1.0  0.2716584298594188  0.6059953784952494  0.6243595978407324  1.0000
  C   C8        1.0  0.1960581430667776  0.6276934436932107  0.5599243734186268  1.0000
  N   N2        1.0  0.1352883888461775  0.6451315987526469  0.5081186302551113  1.0000
  C   C9        1.0  0.2867152271736574  0.6290176248198964  0.7701592142671152  1.0000
  C   C10       1.0  0.36010721091906006  0.6084408090104285  0.8325624494021004  1.0000
  C   C11       1.0  0.418720884801849  0.5648747045296101  0.7498088098682276  1.0000
  C   C12       1.0  0.4517706677446136  0.3890942995933635  0.41639305965557294  1.0000
  C   C13       1.0  0.5103834670878973  0.34543298598841576  0.33369535198237865  1.0000
  C   C14       1.0  0.5844246309685477  0.4065577143739558  0.3482012841197364  1.0000
  H   H1        1.0  0.5540132027161734  0.6387729859253002  0.602821938599748  1.0000
  H   H2        1.0  0.3183162123917222  0.5464911389088813  0.42778443849214876  1.0000
  H   H3        1.0  0.24177471821686264  0.6628158871898664  0.835472083269053  1.0000
  H   H4        1.0  0.3715733360027024  0.6259167592246551  0.9454588128354418  1.0000
  H   H5        1.0  0.4749018004447424  0.5478159704986005  0.8010491883474746  1.0000
  H   H6        1.0  0.39505463242156164  0.33881805500954054  0.4046276403215545  1.0000
  H   H7        1.0  0.4984070039011588  0.26372210475164404  0.2584564161271694  1.0000
  H   H8        1.0  0.6293574555508596  0.3717887300026559  0.283457498684641  1.0000
  C   C15       1.0  0.9341516223505628  0.21191477913621748  0.49066906576367786  1.0000
  C   C16       1.0  0.9170329495011921  0.2953929740826762  0.36005649773401593  1.0000
  C   C17       1.0  0.907080093759793  0.23086182028142366  0.22927479078689306  1.0000
  C   C18       1.0  0.914290020428045  0.08148430637738358  0.22816892301583902  1.0000
  C   C19       1.0  0.9299974697335781  0.9966327958822195  0.35688062764082273  1.0000
  C   C20       1.0  0.9388683904449386  0.05933422120139897  0.48953595601037314  1.0000
  N   N3        1.0  0.8904386115853349  0.3174731781  0.09728703801010385  1.0000
  H   H9        1.0  0.0191791063142579  0.29322213793536345  0.81422887144091  1.0000
  H   H10       1.0  0.9131672642477648  0.41180514737033613  0.3591516346618906  1.0000
  H   H11       1.0  0.906995382667074  0.030413165890215588  0.12757851308179013  1.0000
  H   H12       1.0  0.9333953293231602  0.8806628284734112  0.3530554104284973  1.0000
  H   H13       1.0  0.9930196600818495  0.7632117417821591  0.7093359471752207  1.0000
  H   H14       1.0  0.8851533543458432  0.4292948058886721  0.09676097116264937  1.0000
  H   H15       1.0  0.883206372802847  0.27040406397984973  0.9990757190353521  1.0000
  C   C21       1.0  0.938263468031975  0.6389517278443824  0.0664530429564234  1.0000
  C   C22       1.0  0.8931524745382978  0.7384025704847628  0.12743540623741278  1.0000
  C   C23       1.0  0.8433905853044241  0.8260305114720885  0.04072426938385143  1.0000
  C   C24       1.0  0.8369700753241827  0.8151119283673995  0.891217491003061  1.0000
  C   C25       1.0  0.8832931407996001  0.7197748395659478  0.828333263046273  1.0000
  C   C26       1.0  0.9347565101323606  0.6322972467184309  0.9137519097159728  1.0000
  C   C27       1.0  0.784650284386146  0.9117055507114029  0.7977625134632849  1.0000
  H   H16       1.0  0.024582276988898588  0.3288816080917125  0.20319449035060244  1.0000
  H   H17       1.0  0.8951488674115128  0.7462387341001055  0.24341914250122398  1.0000
  H   H18       1.0  0.8091922597110556  0.9014515709233115  0.09064390459259841  1.0000
  H   H19       1.0  0.8803706274514196  0.7163462767206157  0.7116822922628834  1.0000
  H   H20       1.0  0.9956812146013467  0.42666336235682567  0.6557644803658875  1.0000
  H   H21       1.0  0.8165360976990388  0.013384329683606921  0.7613449384476487  1.0000
  H   H22       1.0  0.734471807401909  0.938690626776661  0.8587338381077503  1.0000
  H   H23       1.0  0.7628018474994175  0.8573531985208529  0.7012782090665324  1.0000
  Zn  Zn1       1.0  0.8524527199764843  0.6316082686231166  0.48248347067204045  1.0000
  Zn  Zn2       1.0  0.02055993515219723  0.6396396537255995  0.49772019115238364  1.0000
  C   C28       1.0  0.935385712211523  0.627806842142302  0.753601842078097  1.0000
  C   C29       1.0  0.9376287881899785  0.6434429873649681  0.22660212529447987  1.0000
  C   C30       1.0  0.9379966575309336  0.8991988391144945  0.48400083610268596  1.0000
  C   C31       1.0  0.9350177755399697  0.372049253493141  0.4962032053035006  1.0000
  O   O1        1.0  0.0012115608609015727  0.6479918690263191  0.2861318847397898  1.0000
  O   O2        1.0  0.9993924217829986  0.6293525106930971  0.7056359870866258  1.0000
  O   O3        1.0  0.0014999269414577299  0.8485049276002863  0.48793118733478247  1.0000
  O   O4        1.0  0.9991039988440003  0.4288394605498931  0.503836571108442  1.0000
  O   O5        1.0  0.8739085989179795  0.8424084590597365  0.47636708550884643  1.0000
  O   O6        1.0  0.8718011037234165  0.6232577763130931  0.6940718060199456  1.0000
  O   O7        1.0  0.8736202497515212  0.6418970979900829  0.2745659692392981  1.0000
  O   O8        1.0  0.8715126872263599  0.422744678343806  0.49227076378400625  1.0000
