data_image0
_chemical_formula_structural       NC9NC5H8C7NH5C6NCOH7Zn2C4O8
_chemical_formula_sum              "N4 C32 H20 O9 Zn2"
_cell_length_a       17.807436237873137
_cell_length_b       10.302819778424748
_cell_length_c       10.29962270195845
_cell_angle_alpha    85.57967011420672
_cell_angle_beta     89.41121966804023
_cell_angle_gamma    88.39001009685678

_space_group_name_H-M_alt    "P 1"
_space_group_IT_number       1

loop_
  _space_group_symop_operation_xyz
  'x, y, z'

loop_
  _atom_site_type_symbol
  _atom_site_label
  _atom_site_symmetry_multiplicity
  _atom_site_fract_x
  _atom_site_fract_y
  _atom_site_fract_z
  _atom_site_occupancy
  N   N1        1.0  0.7071414226389857  0.38687461653801747  0.557178232902146  1.0000
  C   C1        1.0  0.6465518395046722  0.3516921506454562  0.5461546622161684  1.0000
  C   C2        1.0  0.5711850574411427  0.3079290375655326  0.5324425372094137  1.0000
  C   C3        1.0  0.5530740381966665  0.2365025513394956  0.42744313977873705  1.0000
  C   C4        1.0  0.47989676632071326  0.19390045250750765  0.41404692443229507  1.0000
  C   C5        1.0  0.4237817891918402  0.22234741531033442  0.5056176557409049  1.0000
  C   C6        1.0  0.3460132282855432  0.1771872637597054  0.4914630197665595  1.0000
  C   C7        1.0  0.2838417072672604  0.25892666615612203  0.5174011152836362  1.0000
  C   C8        1.0  0.2105221331231871  0.21612159559439914  0.5040185804935351  1.0000
  C   C9        1.0  0.1473005898863727  0.30055164300494797  0.5303205682872474  1.0000
  N   N2        1.0  0.096483457282176  0.3684275602614051  0.5514666400068717  1.0000
  C   C10       1.0  0.1987905304548158  0.09131921347153416  0.46467260113625874  1.0000
  C   C11       1.0  0.2601046800859554  0.009565960354026348  0.43872611619211943  1.0000
  C   C12       1.0  0.3333047844675829  0.05197654628943238  0.4519061191004905  1.0000
  C   C13       1.0  0.4425842537871397  0.2942681862918064  0.610836275805678  1.0000
  C   C14       1.0  0.5158143679568814  0.3366798996193594  0.6240768454461065  1.0000
  H   H1        1.0  0.5954555655987603  0.21400149092920429  0.355732748782551  1.0000
  H   H2        1.0  0.4669687327944991  0.14020832765153912  0.33112918852090023  1.0000
  H   H3        1.0  0.2923445488745158  0.35637090087944334  0.5462772347709504  1.0000
  H   H4        1.0  0.1423235326968876  0.05729021469251272  0.4540780562406801  1.0000
  H   H5        1.0  0.2509032693897985  0.9129411942754524  0.40864962553511974  1.0000
  H   H6        1.0  0.3799420718130668  0.9862455804558256  0.4328583247509765  1.0000
  H   H7        1.0  0.4009198486528963  0.3162307721061124  0.6838411220671028  1.0000
  H   H8        1.0  0.5292705561854869  0.3915919071429692  0.7059529895977432  1.0000
  C   C15       1.0  0.9018160236417888  0.9963979038917344  0.554327995020016  1.0000
  C   C16       1.0  0.857986222583332  0.9886133086886245  0.6686917121291154  1.0000
  C   C17       1.0  0.8361804646704534  0.8676378198246029  0.725588743254661  1.0000
  C   C18       1.0  0.8579862832174507  0.7533122960065273  0.6686917154954968  1.0000
  C   C19       1.0  0.901816036032266  0.758893930499763  0.5543280334367833  1.0000
  C   C20       1.0  0.9235019495721726  0.8809526100973382  0.49774371849949084  1.0000
  C   C21       1.0  0.7912485659366006  0.8607865738124167  0.8428283573443245  1.0000
  N   N3        1.0  0.7551380220848805  0.8552804441175349  0.9370505506723414  1.0000
  H   H9        1.0  0.9184176827932772  0.32666894977545335  0.5110092463211637  1.0000
  H   H10       1.0  0.840700237614108  0.07640182322939237  0.7137952780239756  1.0000
  H   H11       1.0  0.8407003313712842  0.6602522146525881  0.7137952457972057  1.0000
  H   H12       1.0  0.9573019433796197  0.8861063707103599  0.4095505371674937  1.0000
  H   H13       1.0  0.9184177517316929  0.4336858659549781  0.5110093440115395  1.0000
  C   C22       1.0  0.9017445401284481  0.3775227641969594  0.17297228421152266  1.0000
  C   C23       1.0  0.8230254517370542  0.3912680402761959  0.17203353596921422  1.0000
  C   C24       1.0  0.7835049773745806  0.40031220373829446  0.05459602967662369  1.0000
  C   C25       1.0  0.8231915655150984  0.39153843913917274  0.9368589066112776  1.0000
  C   C26       1.0  0.9018875158724479  0.3777691128644727  0.935683712669757  1.0000
  C   C27       1.0  0.9407375301493699  0.3713594774908111  0.05425037057518267  1.0000
  N   N4        1.0  0.702854246984663  0.4123665727820318  0.057661791864670686  1.0000
  C   C28       1.0  0.6587804756053963  0.4853167135110963  0.9602348253936737  1.0000
  O   O1        1.0  0.689043649523547  0.5589298309404835  0.8726809270522473  1.0000
  H   H14       1.0  0.050175070267461486  0.35020796272062316  0.38210290491279153  1.0000
  H   H15       1.0  0.7920058323074376  0.396116094689539  0.2626442480210527  1.0000
  H   H16       1.0  0.7927002674976247  0.39273804354505115  0.8464539797242074  1.0000
  H   H17       1.0  0.001422225854149417  0.36078013672087983  0.05409661888160189  1.0000
  H   H18       1.0  0.93201934538316  0.37051838126334213  0.6079389544138873  1.0000
  H   H19       1.0  0.6743279390179059  0.37335109107283326  0.1401775781190855  1.0000
  H   H20       1.0  0.5981939307732782  0.4800900273920241  0.9640184484446306  1.0000
  Zn  Zn1       1.0  0.8194971238010906  0.38154773276772724  0.5555375011023425  1.0000
  Zn  Zn2       1.0  0.9841277399241039  0.373743864522909  0.5531180480489799  1.0000
  C   C29       1.0  0.901858814077174  0.37255052390792676  0.7915149805781467  1.0000
  C   C30       1.0  0.901767847433144  0.3827426263275291  0.31714066961497833  1.0000
  C   C31       1.0  0.9018111945257918  0.6147645002111022  0.5491530999523087  1.0000
  C   C32       1.0  0.9018154108205629  0.14052709288118792  0.5595026203025406  1.0000
  O   O2        1.0  0.9642521304164589  0.3815272683941273  0.3646067269258013  1.0000
  O   O3        1.0  0.9643253593679809  0.3678419468671952  0.7422122405489735  1.0000
  O   O4        1.0  0.9642860640185639  0.5634328363047787  0.5465033195707314  1.0000
  O   O5        1.0  0.9642913695703453  0.1859363908754239  0.5603155513583364  1.0000
  O   O6        1.0  0.8393334379744983  0.5693552090797012  0.5483399986117956  1.0000
  O   O7        1.0  0.8393727333075278  0.3737658794497709  0.7440488503471239  1.0000
  O   O8        1.0  0.8392995041132831  0.38745115522781304  0.36644177537648415  1.0000
  O   O9        1.0  0.8393387432823491  0.19186026845471793  0.5621506971735364  1.0000
