data_image0
_chemical_formula_structural       NC8NC6H8C8H10C6NH7Zn2C4O8
_chemical_formula_sum              "N3 C32 H25 Zn2 O8"
_cell_length_a       17.457602349358154
_cell_length_b       9.275653711864159
_cell_length_c       9.274774538082514
_cell_angle_alpha    85.24959572730752
_cell_angle_beta     93.23827242343725
_cell_angle_gamma    91.13236207428555

_space_group_name_H-M_alt    "P 1"
_space_group_IT_number       1

loop_
  _space_group_symop_operation_xyz
  'x, y, z'

loop_
  _atom_site_type_symbol
  _atom_site_label
  _atom_site_symmetry_multiplicity
  _atom_site_fract_x
  _atom_site_fract_y
  _atom_site_fract_z
  _atom_site_occupancy
  N   N1        1.0  0.7092121093763908  0.625508438599176  0.47762618394924483  1.0000
  C   C1        1.0  0.64835410349689  0.5746379412400446  0.46568627980655686  1.0000
  C   C2        1.0  0.5726441638709449  0.5113612941615151  0.45084366329558345  1.0000
  C   C3        1.0  0.5141633335289223  0.5552246897912618  0.5342222571324144  1.0000
  C   C4        1.0  0.4398817894096742  0.49429321724784847  0.5200690833832464  1.0000
  C   C5        1.0  0.3778136054745448  0.5406042371847457  0.6083697882083681  1.0000
  C   C6        1.0  0.30295880120215907  0.5616314644176719  0.5464388156798845  1.0000
  C   C7        1.0  0.2444793994655141  0.6052897002735314  0.6299368531386325  1.0000
  C   C8        1.0  0.1681749181982307  0.627010389662074  0.5655450007186777  1.0000
  N   N2        1.0  0.10683906826741531  0.644466741820682  0.5137740999131815  1.0000
  C   C9        1.0  0.2603631302605381  0.6281857365163663  0.7759318722172264  1.0000
  C   C10       1.0  0.3344324571590384  0.607586555423373  0.838294881765371  1.0000
  C   C11       1.0  0.3929009145215972  0.5641238106451929  0.7553061964566938  1.0000
  C   C12       1.0  0.4253682945504244  0.38876010560907637  0.42094241786596154  1.0000
  C   C13       1.0  0.4838373003318594  0.34520221151222885  0.3380093159075046  1.0000
  C   C14       1.0  0.5573354582157807  0.40625318423323886  0.3527741580782948  1.0000
  H   H1        1.0  0.5263275184301017  0.6380483190893984  0.6085175837230494  1.0000
  H   H2        1.0  0.29032477852066174  0.5459852324936518  0.4329823844042868  1.0000
  H   H3        1.0  0.21554346114131182  0.6619030323987503  0.8414278644692821  1.0000
  H   H4        1.0  0.3465426257812116  0.6249651428104235  0.9513411227724047  1.0000
  H   H5        1.0  0.4496397380913618  0.5470468813868818  0.8065128825630437  1.0000
  H   H6        1.0  0.3691001118877077  0.3385444100338213  0.4089641559106343  1.0000
  H   H7        1.0  0.47217624879133174  0.2636290970460955  0.2623853176595332  1.0000
  H   H8        1.0  0.6021619423200819  0.37156577693462123  0.2878436952680934  1.0000
  C   C15       1.0  0.9101782018016299  0.2117127889778907  0.4945490699792059  1.0000
  C   C16       1.0  0.8917478187006695  0.29535992543777745  0.36416152431870596  1.0000
  C   C17       1.0  0.8664179695080412  0.2299965473984562  0.2387320996471991  1.0000
  C   C18       1.0  0.8606565825170541  0.0790880110958827  0.24281969172752582  1.0000
  C   C19       1.0  0.8799057826143404  0.9943166489217243  0.37050040002318774  1.0000
  C   C20       1.0  0.9058803977898835  0.05825147539211861  0.49686430489586453  1.0000
  C   C21       1.0  0.8479946303764808  0.3211027423202806  0.09954819327811992  1.0000
  C   C22       1.0  0.9194594255411103  0.3471570964001478  0.013173249110898233  1.0000
  H   H9        1.0  0.980484006762202  0.47786827221393846  0.7009741282319422  1.0000
  H   H10       1.0  0.8954086775910802  0.4123869866501777  0.36060620412448996  1.0000
  H   H11       1.0  0.841972246818239  0.02677999209748716  0.146457621541088  1.0000
  H   H12       1.0  0.8763548488045778  0.877683892514704  0.3692966460957876  1.0000
  H   H13       1.0  0.9138838814572494  0.7574551377980339  0.7355802651493863  1.0000
  H   H14       1.0  0.803059235755156  0.26662593454668837  0.03270715848970207  1.0000
  H   H15       1.0  0.824794062588129  0.42693739974142386  0.12301900146460132  1.0000
  H   H16       1.0  0.964367643822708  0.4049762889129942  0.07683850334523612  1.0000
  H   H17       1.0  0.9423912642282875  0.24260234142331183  0.9855614159336841  1.0000
  H   H18       1.0  0.904657542352153  0.41438682887492506  0.9111001808845827  1.0000
  C   C23       1.0  0.906633636406313  0.638603079519364  0.07177529288684825  1.0000
  C   C24       1.0  0.9605679736459665  0.7262546069735674  0.14368681656395554  1.0000
  C   C25       1.0  0.01800472635078232  0.8021968864667981  0.06837736201812628  1.0000
  C   C26       1.0  0.021973652436008795  0.7908418866029188  0.9197238659299503  1.0000
  C   C27       1.0  0.9682693530417533  0.7063773433953044  0.8461408419376322  1.0000
  C   C28       1.0  0.9094249641796168  0.6313611812052902  0.9196381078050155  1.0000
  N   N3        1.0  0.07282089519926349  0.8896898804204358  0.1433736563514083  1.0000
  H   H19       1.0  0.7933783647375792  0.3513677042052663  0.18649900186852708  1.0000
  H   H20       1.0  0.9591521717361112  0.7330248991685588  0.2596000884586456  1.0000
  H   H21       1.0  0.06632328022828315  0.8486596053998281  0.860402891908207  1.0000
  H   H22       1.0  0.9717110456487202  0.7025310593132903  0.7302678574051789  1.0000
  H   H23       1.0  0.8307648971075668  0.44217372893924844  0.6458128036400974  1.0000
  H   H24       1.0  0.07054698130857706  0.8986225858466059  0.2545657528583878  1.0000
  H   H25       1.0  0.1160688507266725  0.946321312316212  0.08823759175609291  1.0000
  Zn  Zn1       1.0  0.8239587075953728  0.6309754587998437  0.48806601641821357  1.0000
  Zn  Zn2       1.0  0.9920925547075942  0.6389878028338487  0.5033460542882779  1.0000
  C   C29       1.0  0.9089247885642137  0.6269878264783533  0.7593580229242647  1.0000
  C   C30       1.0  0.9071283009883698  0.6429773401157772  0.23205436130608592  1.0000
  C   C31       1.0  0.9066698920291534  0.8982866199897463  0.4906735966911733  1.0000
  C   C32       1.0  0.9093831491964344  0.371676811459529  0.5007388545548361  1.0000
  O   O1        1.0  0.9711002656082569  0.6474797364250626  0.2916441583756697  1.0000
  O   O2        1.0  0.972562527702476  0.6285655300699449  0.7113650024991558  1.0000
  O   O3        1.0  0.9707408150409388  0.8476426830613337  0.49440035325774234  1.0000
  O   O4        1.0  0.9729219204883983  0.42840259193519303  0.5086086941891208  1.0000
  O   O5        1.0  0.8431292844387055  0.8415606669659139  0.4828033712954538  1.0000
  O   O6        1.0  0.8449509880513754  0.622485246386794  0.6997679482992925  1.0000
  O   O7        1.0  0.8434887205490512  0.641399417340325  0.2800453683830102  1.0000
  O   O8        1.0  0.8453103758347251  0.4223222616163502  0.4970100124025081  1.0000
