data_image0
_chemical_formula_structural       NC9NC5H8C6ClH5C7H8Zn2C4O8
_chemical_formula_sum              "N2 C31 H21 Cl1 Zn2 O8"
_cell_length_a       17.807436237873137
_cell_length_b       10.30297070629231
_cell_length_c       9.274345330872308
_cell_angle_alpha    85.12371235536627
_cell_angle_beta     88.93938532988027
_cell_angle_gamma    88.39001192287228

_space_group_name_H-M_alt    "P 1"
_space_group_IT_number       1

loop_
  _space_group_symop_operation_xyz
  'x, y, z'

loop_
  _atom_site_type_symbol
  _atom_site_label
  _atom_site_symmetry_multiplicity
  _atom_site_fract_x
  _atom_site_fract_y
  _atom_site_fract_z
  _atom_site_occupancy
  N   N1        1.0  0.7138423215682984  0.39806064108080164  0.39648038067702296  1.0000
  C   C1        1.0  0.6533039343593696  0.36296431014298935  0.38422903404448916  1.0000
  C   C2        1.0  0.5780008344682253  0.31930833959354255  0.3689896890707136  1.0000
  C   C3        1.0  0.5603774608268484  0.2486984256507112  0.2522957293026866  1.0000
  C   C4        1.0  0.4872624039710927  0.2062009986859601  0.23740747916064708  1.0000
  C   C5        1.0  0.4307221469628399  0.23393631864491238  0.3391771237394612  1.0000
  C   C6        1.0  0.3530193233490225  0.1888867670523482  0.3234459821044344  1.0000
  C   C7        1.0  0.2907273399999659  0.27042351205082027  0.352272993661364  1.0000
  C   C8        1.0  0.2174699173359088  0.2277230100729819  0.337399947788084  1.0000
  C   C9        1.0  0.1541262217999304  0.3119475343384275  0.36663138092174385  1.0000
  N   N2        1.0  0.1032108821210127  0.37965821671421085  0.39013264578290063  1.0000
  C   C10       1.0  0.2059210462016641  0.10322805459465312  0.29367171800417013  1.0000
  C   C11       1.0  0.2673556971261938  0.021677524238305823  0.26483538262768835  1.0000
  C   C12       1.0  0.3404945906358373  0.06398512042489157  0.2794833391489404  1.0000
  C   C13       1.0  0.449035947832296  0.3050388074099184  0.4561147225818336  1.0000
  C   C14       1.0  0.5222045698410164  0.3473470605527742  0.4708299916030776  1.0000
  H   H1        1.0  0.6030920311741422  0.22675466653157028  0.17259841882703664  1.0000
  H   H2        1.0  0.4747194628898155  0.15315367897988352  0.1452545793814919  1.0000
  H   H3        1.0  0.2990960745552098  0.3676420398300968  0.38436525825650336  1.0000
  H   H4        1.0  0.149503251873445  0.0692818416492682  0.2818971809194719  1.0000
  H   H5        1.0  0.2582939683611017  0.9252877763352481  0.23140905255865785  1.0000
  H   H6        1.0  0.3872203401018136  0.9984030608186856  0.25831405236012817  1.0000
  H   H7        1.0  0.4070324879258759  0.3264340458384416  0.5372506614636015  1.0000
  H   H8        1.0  0.5352805030946888  0.401622335059733  0.5618252897497651  1.0000
  C   C15       1.0  0.9085301525674054  0.007611785524569203  0.3933127040102571  1.0000
  C   C16       1.0  0.9859991892864938  0.0006159437717343508  0.4198472384324452  1.0000
  C   C17       1.0  0.02443725802987129  0.8801879505815674  0.43301286530781  1.0000
  C   C18       1.0  0.9859991889588855  0.7655079755847142  0.41984717056447285  1.0000
  C   C19       1.0  0.9085301602541915  0.7700967264050442  0.39331278649955825  1.0000
  C   C20       1.0  0.8701732685957752  0.8917222154636216  0.38017483147610354  1.0000
  Cl  Cl1       1.0  0.12121454275490162  0.8729519950390676  0.46616072129263886  1.0000
  H   H9        1.0  0.8793489264972902  0.3375501203205238  0.38331680159076686  1.0000
  H   H10       1.0  0.016810508405474156  0.08835879282636916  0.43040054372792547  1.0000
  H   H11       1.0  0.016810479109510945  0.6731576020968865  0.4304004405178139  1.0000
  H   H12       1.0  0.8104267966897154  0.8961892939654968  0.35971055680677333  1.0000
  H   H13       1.0  0.8793489217405784  0.4445221519927717  0.38331707414475047  1.0000
  C   C21       1.0  0.9102298001293025  0.39169303781555787  0.9694825547224251  1.0000
  C   C22       1.0  0.8654946967471278  0.48525496554095393  0.035471428445661424  1.0000
  C   C23       1.0  0.8162678264468597  0.5685885095582297  0.9542403337090151  1.0000
  C   C24       1.0  0.8100375321429145  0.5593323190119643  0.8053976946247601  1.0000
  C   C25       1.0  0.8559376065053913  0.46936561760238216  0.7373855430856069  1.0000
  C   C26       1.0  0.9068305060292003  0.38601545088510125  0.8171428484055978  1.0000
  C   C27       1.0  0.7582559351441351  0.650965868735786  0.7177130647741303  1.0000
  H   H14       1.0  0.9964824411713351  0.1048362165929222  0.09641285367878694  1.0000
  H   H15       1.0  0.8674077277329999  0.49213130971097585  0.1512572341679448  1.0000
  H   H16       1.0  0.7823543073915278  0.6395424239821956  0.007955423353131597  1.0000
  H   H17       1.0  0.8530932714764246  0.4665400251651204  0.6210398546831253  1.0000
  H   H18       1.0  0.96763644115473  0.19544763932517117  0.5522561341598808  1.0000
  H   H19       1.0  0.7889383359707047  0.7396561673568327  0.6780888581824365  1.0000
  H   H20       1.0  0.7089516239306404  0.6797416747960145  0.7840917761059734  1.0000
  H   H21       1.0  0.7371485578540947  0.6039855881137306  0.6234555564960265  1.0000
  Zn  Zn1       1.0  0.8262056426537955  0.3927465788323443  0.39465690854183655  1.0000
  Zn  Zn2       1.0  0.9908474952558569  0.3849616166868999  0.39196798325336446  1.0000
  C   C28       1.0  0.9074713865092633  0.3819166741977966  0.6569169574782261  1.0000
  C   C29       1.0  0.9095835487162752  0.39579307345873294  0.12970804661250246  1.0000
  C   C30       1.0  0.9085493687151245  0.6260095176790181  0.3875614210696037  1.0000
  C   C31       1.0  0.9085055100210347  0.15169867231298761  0.3990636608861984  1.0000
  O   O1        1.0  0.9718473858625627  0.39420906637556796  0.1824607522350099  1.0000
  O   O2        1.0  0.9701669076008692  0.37759109851669037  0.6021230043095316  1.0000
  O   O3        1.0  0.9710365435767868  0.5746991863773485  0.3846165166806401  1.0000
  O   O4        1.0  0.970977694139501  0.19710099118348223  0.3999671325651799  1.0000
  O   O5        1.0  0.8460753875859979  0.5806072069938513  0.38665776014002784  1.0000
  O   O6        1.0  0.8452057519153062  0.3835006794558071  0.6041641708138525  1.0000
  O   O7        1.0  0.846886237185616  0.4001186136933872  0.18450018349297115  1.0000
  O   O8        1.0  0.8460165450255451  0.20301052849081902  0.40200667203186935  1.0000
