data_image0
_chemical_formula_structural       NC9NC5H8C6ClH5C6OCH8Zn2C4O8
_chemical_formula_sum              "N2 C31 H21 Cl1 O9 Zn2"
_cell_length_a       17.807436237873137
_cell_length_b       10.30297070629231
_cell_length_c       9.273891588657152
_cell_angle_alpha    86.0762958320409
_cell_angle_beta     89.08663702953788
_cell_angle_gamma    88.39001192287228

_space_group_name_H-M_alt    "P 1"
_space_group_IT_number       1

loop_
  _space_group_symop_operation_xyz
  'x, y, z'

loop_
  _atom_site_type_symbol
  _atom_site_label
  _atom_site_symmetry_multiplicity
  _atom_site_fract_x
  _atom_site_fract_y
  _atom_site_fract_z
  _atom_site_occupancy
  N   N1        1.0  0.712068528650901  0.37409030028261925  0.3985037139846235  1.0000
  C   C1        1.0  0.6515165891588425  0.3388108291134808  0.3862678261948791  1.0000
  C   C2        1.0  0.5761966316989756  0.2949270520014198  0.3710477103430301  1.0000
  C   C3        1.0  0.5584441726901076  0.22257272910280013  0.25450099590505615  1.0000
  C   C4        1.0  0.4853126466422471  0.17985274394450257  0.23963153187080222  1.0000
  C   C5        1.0  0.4288849659146863  0.20910937554446463  0.3412727627345  1.0000
  C   C6        1.0  0.3511647407129629  0.16382466572770915  0.32556147077418407  1.0000
  C   C7        1.0  0.2889046454358158  0.24579233360538155  0.3543521081876746  1.0000
  C   C8        1.0  0.2156307703984219  0.20286950071621912  0.339497829237317  1.0000
  C   C9        1.0  0.1523194103003346  0.2875309933890293  0.3686923779253013  1.0000
  N   N2        1.0  0.1014300674203698  0.355592986295175  0.3921639887108912  1.0000
  C   C10       1.0  0.2040335276550329  0.07772087031069219  0.29582477606785673  1.0000
  C   C11       1.0  0.2654362801937629  0.9957392776972852  0.2670248265996813  1.0000
  C   C12       1.0  0.3385913770857777  0.038265840029080955  0.2816543002174745  1.0000
  C   C13       1.0  0.4473281216620651  0.28195991532337517  0.45806280882117334  1.0000
  C   C14       1.0  0.5205130215133845  0.32448814083771005  0.472759510003532  1.0000
  H   H1        1.0  0.601070582890713  0.19943760838771785  0.17490424810470406  1.0000
  H   H2        1.0  0.4726677672005184  0.1254278692733175  0.14759491132469638  1.0000
  H   H3        1.0  0.2973088800441657  0.3434905951590761  0.3864038785181412  1.0000
  H   H4        1.0  0.1476027084843144  0.043598644759499594  0.284065096184017  1.0000
  H   H5        1.0  0.256337575649381  0.8988498536357746  0.23364067412933087  1.0000
  H   H6        1.0  0.385293709357153  0.9723673296525398  0.2605117249964799  1.0000
  H   H7        1.0  0.4054144132946973  0.30456802079919854  0.5390963697553282  1.0000
  H   H8        1.0  0.5336896126033713  0.38012366580953616  0.5636399895877544  1.0000
  C   C15       1.0  0.9067528556065475  0.9835940924593319  0.3953400343164788  1.0000
  C   C16       1.0  0.9842512444886263  0.976994904308584  0.4218410872603917  1.0000
  C   C17       1.0  0.022703876880257656  0.8567637185408028  0.4349901016471711  1.0000
  C   C18       1.0  0.9842512440859432  0.741886935107034  0.42184101947805575  1.0000
  C   C19       1.0  0.906752863384582  0.7460790345729053  0.39534011670169433  1.0000
  C   C20       1.0  0.8683814386881604  0.8675081298639798  0.3822187392502707  1.0000
  Cl  Cl1       1.0  0.1195178293401038  0.8500232763647199  0.46809613141404727  1.0000
  H   H9        1.0  0.8775605721968768  0.3133830027114939  0.38535674480303683  1.0000
  H   H10       1.0  0.015074237539102198  0.06489551028831775  0.4323810763146163  1.0000
  H   H11       1.0  0.015074208128969424  0.6496943180159904  0.4323809732347357  1.0000
  H   H12       1.0  0.8086123294628995  0.8716692965253634  0.3617802865590789  1.0000
  H   H13       1.0  0.8775605677416607  0.4203550384580367  0.38535701701310976  1.0000
  C   C21       1.0  0.9079836676718737  0.3613396859928286  0.9720446771493574  1.0000
  C   C22       1.0  0.9695106588784387  0.4132528121339316  0.03961658393936651  1.0000
  C   C23       1.0  0.026776039117842654  0.4750628739366387  0.9588744336200761  1.0000
  C   C24       1.0  0.022719202716404707  0.4852753968788066  0.8074998754894027  1.0000
  C   C25       1.0  0.962770632702018  0.43250118161144147  0.7385600705869795  1.0000
  C   C26       1.0  0.9055220505879916  0.36833335706667447  0.8186353986811472  1.0000
  O   O1        1.0  0.08625124484139901  0.5254750028239661  0.03311265569581523  1.0000
  C   C27       1.0  0.14811944352260586  0.5908614253623594  0.9650289360532902  1.0000
  H   H14       1.0  0.7292794370631458  0.2900901965380922  0.08597161354066474  1.0000
  H   H15       1.0  0.9723698500221459  0.40859074711809495  0.15650398155540035  1.0000
  H   H16       1.0  0.0659983924672205  0.5327950200227127  0.7418730605898474  1.0000
  H   H17       1.0  0.962164417737936  0.43922109947428134  0.6214887652159939  1.0000
  H   H18       1.0  0.7863500439177542  0.3151631982101115  0.545133132256022  1.0000
  H   H19       1.0  0.12795211156704522  0.6796747543561601  0.9009617300812143  1.0000
  H   H20       1.0  0.17944579096646396  0.5249401134271543  0.8941062035719898  1.0000
  H   H21       1.0  0.1865781412951566  0.6200664665146776  0.049246289539846444  1.0000
  Zn  Zn1       1.0  0.8244298326348176  0.3687489797156538  0.39668254272050985  1.0000
  Zn  Zn2       1.0  0.9890687107820769  0.3609238219562809  0.39399701033851153  1.0000
  C   C28       1.0  0.9059856852059593  0.3618394903195603  0.6586116699233131  1.0000
  C   C29       1.0  0.9075146556510411  0.36783486516831876  0.1320679952895405  1.0000
  C   C30       1.0  0.906765709758552  0.6019058511024791  0.38959600838858344  1.0000
  C   C31       1.0  0.9067345746952024  0.12776694788484777  0.4010837345910927  1.0000
  O   O2        1.0  0.969836847166355  0.36703943610849743  0.18475413714502853  1.0000
  O   O3        1.0  0.9686205939265812  0.35669482286351983  0.6038868561833886  1.0000
  O   O4        1.0  0.9692496270046014  0.5505514976629011  0.38665481990247885  1.0000
  O   O5        1.0  0.9692077582224977  0.17318277237372426  0.4019860662626067  1.0000
  O   O6        1.0  0.8442907290112497  0.5564900319699033  0.3886934877052728  1.0000
  O   O7        1.0  0.8436616961533285  0.3626349163427669  0.6059254471282185  1.0000
  O   O8        1.0  0.8448779544822114  0.3729794700269784  0.1867909950330453  1.0000
  O   O9        1.0  0.8442488652210441  0.1791227978992902  0.40402303222281355  1.0000
