data_image0
_chemical_formula_structural       NC8NC6H8C6FH5C6OCH8Zn2C4O8
_chemical_formula_sum              "N2 C31 H21 F1 O9 Zn2"
_cell_length_a       17.457602349358154
_cell_length_b       9.275642734913903
_cell_length_c       9.273891588657152
_cell_angle_alpha    85.99709959314173
_cell_angle_beta     92.54290593679647
_cell_angle_gamma    92.29444944329062

_space_group_name_H-M_alt    "P 1"
_space_group_IT_number       1

loop_
  _space_group_symop_operation_xyz
  'x, y, z'

loop_
  _atom_site_type_symbol
  _atom_site_label
  _atom_site_symmetry_multiplicity
  _atom_site_fract_x
  _atom_site_fract_y
  _atom_site_fract_z
  _atom_site_occupancy
  N   N1        1.0  0.7359193678358685  0.6003799710728699  0.4744838162735818  1.0000
  C   C1        1.0  0.6745899076660394  0.5492582191417743  0.46275283612707896  1.0000
  C   C2        1.0  0.5982934808463048  0.4856692017236872  0.4481700783971829  1.0000
  C   C3        1.0  0.5397722552294945  0.5310220127038423  0.5312328865960239  1.0000
  C   C4        1.0  0.46492510836158485  0.4697921736533355  0.5173296820652313  1.0000
  C   C5        1.0  0.4028126270631368  0.517680413273379  0.6052964799023897  1.0000
  C   C6        1.0  0.3285615896089763  0.5376469980885379  0.543403250125382  1.0000
  C   C7        1.0  0.27003886636382324  0.5827965547453735  0.6265860334795896  1.0000
  C   C8        1.0  0.19436062249797353  0.6034143352092078  0.5622339451514902  1.0000
  N   N2        1.0  0.1335281907296612  0.619983945148652  0.510495040401153  1.0000
  C   C9        1.0  0.2852748842420949  0.608254637111967  0.7722260322002972  1.0000
  C   C10       1.0  0.3587423837701251  0.5887239869894165  0.8345489256416603  1.0000
  C   C11       1.0  0.417253140261686  0.5437789584047474  0.7518738313824342  1.0000
  C   C12       1.0  0.44988825750835226  0.36244287587227975  0.41877444182811785  1.0000
  C   C13       1.0  0.5083982041383712  0.31740358494891074  0.3361551770863407  1.0000
  C   C14       1.0  0.5824595033888399  0.37876367833395586  0.3506684760790295  1.0000
  H   H1        1.0  0.5523685815606538  0.6152100448632418  0.6050862485820205  1.0000
  H   H2        1.0  0.316453898913406  0.5200115632539124  0.4302148322769259  1.0000
  H   H3        1.0  0.2404155793343812  0.643141277529069  0.8374766781912655  1.0000
  H   H4        1.0  0.3703472701717091  0.6080861088319993  0.947321554413104  1.0000
  H   H5        1.0  0.4734960568487366  0.527579268474289  0.8030481755938064  1.0000
  H   H6        1.0  0.393155863468264  0.31197581528968943  0.40700277104487737  1.0000
  H   H7        1.0  0.4963265203627841  0.23444399322332243  0.26097101830954816  1.0000
  H   H8        1.0  0.6273117819149526  0.342915949304327  0.2859858715611989  1.0000
  C   C15       1.0  0.9323531152450905  0.18652668279029605  0.492894487892545  1.0000
  C   C16       1.0  0.9178828706945779  0.26795097972008053  0.3613711412741101  1.0000
  C   C17       1.0  0.9106484436734081  0.20114617074523733  0.23094777544773293  1.0000
  C   C18       1.0  0.9178335697704879  0.05219298372204961  0.22974972796547521  1.0000
  C   C19       1.0  0.9309230428225702  0.9690929238382658  0.3591316947465639  1.0000
  C   C20       1.0  0.9371016938408396  0.03382656798316841  0.49209748721394564  1.0000
  F   F1        1.0  0.897545467590287  0.2814744487439058  0.10508423923627053  1.0000
  H   H9        1.0  0.01069426848445687  0.27244055704888304  0.8219441801442806  1.0000
  H   H10       1.0  0.9139709120696041  0.38436683368423363  0.3591721406430288  1.0000
  H   H11       1.0  0.9125259893073462  0.0005602209430755067  0.12846238304720314  1.0000
  H   H12       1.0  0.9343993534592903  0.853068647095634  0.35548514049435087  1.0000
  H   H13       1.0  0.98677605058682  0.7408241953368273  0.7151894799808693  1.0000
  C   C21       1.0  0.9359628528692203  0.606417740146314  0.06933809249523093  1.0000
  C   C22       1.0  0.9991345855756111  0.670451318078028  0.1435449782409175  1.0000
  C   C23       1.0  0.058014814142823834  0.7450431741874637  0.06896413740996166  1.0000
  C   C24       1.0  0.053934447987023404  0.755973264445017  0.9171378431185451  1.0000
  C   C25       1.0  0.9923696742839829  0.6911456126111679  0.8417355660318826  1.0000
  C   C26       1.0  0.9334919211546179  0.6139354606635468  0.9156538754772838  1.0000
  O   O1        1.0  0.11908134651343505  0.807197170228666  0.149615836343171  1.0000
  C   C27       1.0  0.18268552276702343  0.8862379383647137  0.08819010842532649  1.0000
  H   H14       1.0  0.7529767938036447  0.5088112527215687  0.1639106980398468  1.0000
  H   H15       1.0  0.0020261507897787467  0.6655655655455492  0.2607481016450002  1.0000
  H   H16       1.0  0.09843910193446148  0.8132425490494453  0.8561666901895579  1.0000
  H   H17       1.0  0.9917922890972177  0.6985504952584778  0.7245913284430245  1.0000
  H   H18       1.0  0.8114292779133079  0.5425595141726396  0.6292507511747933  1.0000
  H   H19       1.0  0.16263815226611644  0.9828503552304908  0.02183746529740649  1.0000
  H   H20       1.0  0.2142741405973374  0.8162148726996803  0.020742097716082597  1.0000
  H   H21       1.0  0.22215209502214317  0.9226582333041777  0.17655818175424853  1.0000
  Zn  Zn1       1.0  0.8506606393579893  0.6060334595610695  0.48488420143350974  1.0000
  Zn  Zn2       1.0  0.01878680422241663  0.6143187329968134  0.5001064639675779  1.0000
  C   C28       1.0  0.9339250715175553  0.6067670681756483  0.7556873412474314  1.0000
  C   C29       1.0  0.9355242177840648  0.6135870364249056  0.22930363010182808  1.0000
  C   C30       1.0  0.9362169132205589  0.8736176539241376  0.4865055460147967  1.0000
  C   C31       1.0  0.933232308772981  0.3467347152211462  0.4984854985960889  1.0000
  O   O2        1.0  0.9991799759381339  0.6191310418735227  0.28876630104622447  1.0000
  O   O3        1.0  0.9978731774325086  0.6075103015167109  0.7077776015602426  1.0000
  O   O4        1.0  0.9997230041223717  0.8229954952190757  0.4904113181182854  1.0000
  O   O5        1.0  0.9973300922514863  0.4036458547045325  0.5061324712395243  1.0000
  O   O6        1.0  0.8721172939557418  0.8167063350274961  0.47885818895937105  1.0000
  O   O7        1.0  0.8702674772007809  0.6012228739545471  0.6962243939375099  1.0000
  O   O8        1.0  0.8715742805338886  0.6128435486502439  0.2772113609822271  1.0000
  O   O9        1.0  0.8697243964708476  0.3973583521220254  0.49457763922199205  1.0000
