data_image0
_chemical_formula_structural       NC8NC6H8C7NH5C6NCH9Zn2C4O8
_chemical_formula_sum              "N4 C32 H22 Zn2 O8"
_cell_length_a       17.457602349358154
_cell_length_b       10.302819778424748
_cell_length_c       9.273390368590327
_cell_angle_alpha    86.16779703784611
_cell_angle_beta     92.8511133753594
_cell_angle_gamma    91.68806980205999

_space_group_name_H-M_alt    "P 1"
_space_group_IT_number       1

loop_
  _space_group_symop_operation_xyz
  'x, y, z'

loop_
  _atom_site_type_symbol
  _atom_site_label
  _atom_site_symmetry_multiplicity
  _atom_site_fract_x
  _atom_site_fract_y
  _atom_site_fract_z
  _atom_site_occupancy
  N   N1        1.0  0.7225530189127268  0.43780993951945835  0.4756971510609942  1.0000
  C   C1        1.0  0.6614760754980965  0.3917863246913664  0.46391582380256646  1.0000
  C   C2        1.0  0.5854937739676962  0.3345387616915667  0.4492704423546878  1.0000
  C   C3        1.0  0.5269581634258885  0.3754828099054437  0.5323918424305687  1.0000
  C   C4        1.0  0.4524138873686122  0.3203593722171567  0.518428364099357  1.0000
  C   C5        1.0  0.3902869683056124  0.36359278796872685  0.6064570792786019  1.0000
  C   C6        1.0  0.3157455027687275  0.381463835941364  0.5445707719225898  1.0000
  C   C7        1.0  0.2572098793207793  0.42222516102649266  0.6278119789156067  1.0000
  C   C8        1.0  0.1812304649845612  0.4406783690653613  0.5634669543920607  1.0000
  N   N2        1.0  0.1201559323514609  0.45550837221096696  0.5117337223074503  1.0000
  C   C9        1.0  0.2727235113034693  0.44536389946623745  0.7735038457975882  1.0000
  C   C10       1.0  0.3464802366988151  0.42788582992037005  0.8358203093287555  1.0000
  C   C11       1.0  0.4050042125592913  0.3873093596189807  0.7530870811751038  1.0000
  C   C12       1.0  0.4376940012617145  0.22359947402663227  0.4197532322585127  1.0000
  C   C13       1.0  0.49621785636940685  0.1829382633428389  0.33707575563548753  1.0000
  C   C14       1.0  0.5699773155026443  0.23817987658224804  0.3516495679201357  1.0000
  H   H1        1.0  0.5392959923419737  0.4513607726100253  0.6063385696990551  1.0000
  H   H2        1.0  0.3034100122473791  0.36541575701640405  0.4313440661200052  1.0000
  H   H3        1.0  0.2278570548697617  0.4768613267543653  0.838799822279904  1.0000
  H   H4        1.0  0.3583020509908644  0.44548712649541033  0.9486327709340223  1.0000
  H   H5        1.0  0.4614855289121891  0.3728113664749695  0.804255992552549  1.0000
  H   H6        1.0  0.38121033923885894  0.17816496145415206  0.4079318225389259  1.0000
  H   H7        1.0  0.48439394895490717  0.10816370254829999  0.2617991322896833  1.0000
  H   H8        1.0  0.6148437681988592  0.20581844364974589  0.28692083753760844  1.0000
  C   C15       1.0  0.9213581359215458  0.06540633149085684  0.49372197223995196  1.0000
  C   C16       1.0  0.8765659999397459  0.05472080808510005  0.6158743135987848  1.0000
  C   C17       1.0  0.8542814709327544  0.9323020783926718  0.676646257088936  1.0000
  C   C18       1.0  0.8765660618591602  0.8194198010758205  0.6158743239341662  1.0000
  C   C19       1.0  0.9213581485639303  0.8279023596456567  0.493722016224061  1.0000
  C   C20       1.0  0.9435202018706784  0.951396348130587  0.43328408655812445  1.0000
  C   C21       1.0  0.8083630393575938  0.922476962859942  0.801870364979776  1.0000
  N   N3        1.0  0.7714596459437125  0.91458081423289  0.902509468409578  1.0000
  H   H9        1.0  0.9383243042204399  0.3967761724068122  0.4474530208720504  1.0000
  H   H10       1.0  0.8589004808634376  0.14136522672906837  0.6640496030908747  1.0000
  H   H11       1.0  0.8589005766186939  0.7252156265395222  0.6640495775294599  1.0000
  H   H12       1.0  0.9780623143442854  0.9587872028485389  0.33908460178575917  1.0000
  H   H13       1.0  0.9383243745934614  0.5037930960002244  0.4474531367935539  1.0000
  C   C22       1.0  0.9213937003960315  0.4426073633338332  0.07047945157144064  1.0000
  C   C23       1.0  0.9918579027325507  0.44316429803386503  0.15046843281023237  1.0000
  C   C24       1.0  0.06109305080253935  0.45573545081607136  0.08132874587219852  1.0000
  C   C25       1.0  0.061623098163017476  0.468179691792882  0.9297487986806874  1.0000
  C   C26       1.0  0.9916265229851937  0.4654540790702406  0.8489925985187865  1.0000
  C   C27       1.0  0.9213225996989203  0.45070139953694155  0.9169645424203172  1.0000
  N   N4        1.0  0.13215494868661337  0.4823034202470944  0.8553531548626814  1.0000
  C   C28       1.0  0.20790445859090578  0.4858282571893766  0.929206880031392  1.0000
  H   H14       1.0  0.8002992593212197  0.37485321375824876  0.3453440953961928  1.0000
  H   H15       1.0  0.9934507998032043  0.43696829509765167  0.2676609258081746  1.0000
  H   H16       1.0  0.11395326567623165  0.4568937536572175  0.14724071523084503  1.0000
  H   H17       1.0  0.992197605093023  0.4718767526547851  0.7319167259992199  1.0000
  H   H18       1.0  0.7425270403837956  0.34187926856935036  0.805268385689371  1.0000
  H   H19       1.0  0.12966564341050435  0.4907969403521617  0.7422517047904513  1.0000
  H   H20       1.0  0.21288360126751238  0.5693336142715313  0.9991267025818287  1.0000
  H   H21       1.0  0.2172627770713227  0.3934409576476605  0.9956090005653229  1.0000
  H   H22       1.0  0.25286528671095176  0.4976444707934953  0.8483913210448475  1.0000
  Zn  Zn1       1.0  0.8372926303685604  0.44291392281499853  0.4861048488768249  1.0000
  Zn  Zn2       1.0  0.005416305654169173  0.4503938571612187  0.50133782445105  1.0000
  C   C29       1.0  0.9213343116639403  0.4439992502202934  0.7569605851874697  1.0000
  C   C30       1.0  0.9213764602522322  0.4493102509108724  0.2304823959461908  1.0000
  C   C31       1.0  0.9213546775535298  0.6837193236568018  0.4879782643393913  1.0000
  C   C32       1.0  0.9213560369873067  0.20958861582828492  0.49946478843711106  1.0000
  O   O1        1.0  0.9851727328893991  0.4543927332959925  0.28996168056597726  1.0000
  O   O2        1.0  0.9851400184863536  0.4445928815380895  0.7090423616677135  1.0000
  O   O3        1.0  0.9851556039915795  0.6381698485764944  0.4918371565588979  1.0000
  O   O4        1.0  0.9851570900240308  0.2608157719592725  0.5071667724105764  1.0000
  O   O5        1.0  0.8575517886263403  0.632492005465751  0.4802758957114506  1.0000
  O   O6        1.0  0.8575362031240914  0.438916597522232  0.6974810239715754  1.0000
  O   O7        1.0  0.85756891772375  0.4487163874709408  0.2783986100347309  1.0000
  O   O8        1.0  0.8575532748461655  0.25513941788134264  0.49560380993769826  1.0000
