data_image0
_chemical_formula_structural       NC9NC5H8C8H10C6OCH8Zn2C4O8
_chemical_formula_sum              "N2 C33 H26 O9 Zn2"
_cell_length_a       17.807436237873137
_cell_length_b       9.275653711864159
_cell_length_c       9.273891588657152
_cell_angle_alpha    86.25581090866153
_cell_angle_beta     89.08663702953788
_cell_angle_gamma    87.8440138982238

_space_group_name_H-M_alt    "P 1"
_space_group_IT_number       1

loop_
  _space_group_symop_operation_xyz
  'x, y, z'

loop_
  _atom_site_type_symbol
  _atom_site_label
  _atom_site_symmetry_multiplicity
  _atom_site_fract_x
  _atom_site_fract_y
  _atom_site_fract_z
  _atom_site_occupancy
  N   N1        1.0  0.7044522210174811  0.5264229501162969  0.4034994950199158  1.0000
  C   C1        1.0  0.644095828576088  0.48723237112053286  0.3911353416329495  1.0000
  C   C2        1.0  0.5690191101133477  0.438483606568552  0.3757556775029356  1.0000
  C   C3        1.0  0.5516676966410723  0.35810803082228393  0.2589459044042002  1.0000
  C   C4        1.0  0.4787729589243672  0.31065207704629016  0.24392112329097548  1.0000
  C   C5        1.0  0.4221831145409411  0.34315212009884255  0.3456687225099939  1.0000
  C   C6        1.0  0.3447138934260551  0.29284711442386224  0.32979278889953023  1.0000
  C   C7        1.0  0.2819994677643459  0.38390177756372745  0.3588814362186328  1.0000
  C   C8        1.0  0.2089635054024976  0.33622048820992867  0.3438711026956718  1.0000
  C   C9        1.0  0.1451828835879365  0.43026761552048476  0.37337345522990106  1.0000
  N   N2        1.0  0.0939162866978021  0.5058750104502248  0.39709251904919274  1.0000
  C   C10       1.0  0.1980599364801623  0.19719778963813295  0.2997430465658939  1.0000
  C   C11       1.0  0.2599170965854788  0.10612765805620494  0.27064503656593475  1.0000
  C   C12       1.0  0.3328364772503692  0.15336874601050643  0.2854291240351978  1.0000
  C   C13       1.0  0.440222474320833  0.42407892368956546  0.46272363135347705  1.0000
  C   C14       1.0  0.5131716487263399  0.4713218592080326  0.47757495243413906  1.0000
  H   H1        1.0  0.59442234018738  0.3324081338024525  0.17926504422979672  1.0000
  H   H2        1.0  0.46642974567467904  0.25019362119501665  0.15168663019117035  1.0000
  H   H3        1.0  0.2898621804544562  0.4924309394327482  0.39128840818479294  1.0000
  H   H4        1.0  0.1418182499791681  0.15929274935098992  0.28785930848350993  1.0000
  H   H5        1.0  0.2513554307349335  0.9984970019918825  0.23690862315090921  1.0000
  H   H6        1.0  0.3799040717810798  0.08016467885673895  0.2640469615553993  1.0000
  H   H7        1.0  0.3981834537477991  0.44919338017750476  0.5438393885920214  1.0000
  H   H8        1.0  0.5260398632318729  0.5331251789325786  0.5686577061341787  1.0000
  C   C15       1.0  0.9013009903302668  0.09263604875162534  0.3989160880245377  1.0000
  C   C16       1.0  0.8840438244428771  0.17579276725205806  0.27064494284864304  1.0000
  C   C17       1.0  0.8599943396374321  0.11072520912869677  0.1480640672292517  1.0000
  C   C18       1.0  0.8543227510175889  0.960472269227598  0.15276309759144135  1.0000
  C   C19       1.0  0.872399100098928  0.8760598059748048  0.2782428843488587  1.0000
  C   C20       1.0  0.8970747055728046  0.9396505497777743  0.40168825649262296  1.0000
  C   C21       1.0  0.8427983988518496  0.20118161562171877  0.011005645497897287  1.0000
  C   C22       1.0  0.9133696186724045  0.21846047589570916  0.917086255804958  1.0000
  H   H9        1.0  0.9689281805363675  0.35541429388929235  0.5975931712872555  1.0000
  H   H10       1.0  0.8876535404886582  0.2923859745715043  0.26670217833994725  1.0000
  H   H11       1.0  0.836606579587932  0.908313194160745  0.058506528640577926  1.0000
  H   H12       1.0  0.8689265037762413  0.7597639626847031  0.27742014375576907  1.0000
  H   H13       1.0  0.9034441920938193  0.642351599211594  0.6392815164434966  1.0000
  H   H14       1.0  0.7991730331912568  0.15003743463795916  0.9490438702213249  1.0000
  H   H15       1.0  0.8199161477645941  0.3097827454645363  0.03693081853535363  1.0000
  H   H16       1.0  0.9569879626219238  0.2728925050500397  0.9758787078249007  1.0000
  H   H17       1.0  0.936014079374195  0.11109169743456859  0.8870534214518373  1.0000
  H   H18       1.0  0.8994936445628827  0.2853440369095015  0.8167099624041247  1.0000
  C   C23       1.0  0.9004380341425692  0.5122587934549672  0.9769941007676417  1.0000
  C   C24       1.0  0.9616772812766945  0.5699270465077422  0.044754748145518164  1.0000
  C   C25       1.0  0.018600060709271338  0.6385894167059405  0.964237320709783  1.0000
  C   C26       1.0  0.014486618336286172  0.6499341073673242  0.8128998922556856  1.0000
  C   C27       1.0  0.9548305652390964  0.5913093042216249  0.7437682161030752  1.0000
  C   C28       1.0  0.8979376525390814  0.5200277879893775  0.8236102491940902  1.0000
  O   O1        1.0  0.07779584208787527  0.6945902708579641  0.03865882619665695  1.0000
  C   C29       1.0  0.1393016169101855  0.7672254797434916  0.9708128320148357  1.0000
  H   H19       1.0  0.7221287251996878  0.43311053379153  0.09066199534188701  1.0000
  H   H20       1.0  0.9645623133140897  0.5647481415743156  0.16162519588861635  1.0000
  H   H21       1.0  0.057502416322809946  0.7027217904859786  0.7474458444821761  1.0000
  H   H22       1.0  0.9541871031146898  0.5987741970650029  0.6267213423420142  1.0000
  H   H23       1.0  0.779060357422143  0.4609631466602788  0.5499146719864023  1.0000
  H   H24       1.0  0.11864201044004163  0.8658847189685135  0.9070685247231283  1.0000
  H   H25       1.0  0.1709933529978569  0.6939960832336869  0.8996504293750891  1.0000
  H   H26       1.0  0.17759843698240108  0.7996682129938615  0.05513636628928764  1.0000
  Zn  Zn1       1.0  0.8168431308727134  0.5204894868674355  0.40165890431299944  1.0000
  Zn  Zn2       1.0  0.9815253823039289  0.5117968264289399  0.3989449219996364  1.0000
  C   C30       1.0  0.8984372813612628  0.5128140064527831  0.6635629106805263  1.0000
  C   C31       1.0  0.8999330206429949  0.5194740329167014  0.1370410334351515  1.0000
  C   C32       1.0  0.8978866661038064  0.7794942985519111  0.3954200585762717  1.0000
  C   C33       1.0  0.9004835881245764  0.2527920117622391  0.4051839576472587  1.0000
  O   O2        1.0  0.9622596210624533  0.5185904220129263  0.18972428334866742  1.0000
  O   O3        1.0  0.9611007059443494  0.5070989974217164  0.6088193924696479  1.0000
  O   O4        1.0  0.9606552302569991  0.7224467641486527  0.3922921610325887  1.0000
  O   O5        1.0  0.9627050408226375  0.3032426675772295  0.40625140766262247  1.0000
  O   O6        1.0  0.8356634161560492  0.7290436486870246  0.3943524195685846  1.0000
  O   O7        1.0  0.8361088834213184  0.5136976139833023  0.6108795798163629  1.0000
  O   O8        1.0  0.8372678039586652  0.5251889724107963  0.19178273742202445  1.0000
  O   O9        1.0  0.8377132234480595  0.3098412086517386  0.40830996977765555  1.0000
