data_image0
_chemical_formula_structural       NC8NC6H8C7F3H5C6NH7Zn2C4O8
_chemical_formula_sum              "N3 C31 H20 F3 Zn2 O8"
_cell_length_a       17.457602349358154
_cell_length_b       9.27228830945605
_cell_length_c       9.274774538082514
_cell_angle_alpha    84.76856818496036
_cell_angle_beta     93.23827242343725
_cell_angle_gamma    91.12935064675003

_space_group_name_H-M_alt    "P 1"
_space_group_IT_number       1

loop_
  _space_group_symop_operation_xyz
  'x, y, z'

loop_
  _atom_site_type_symbol
  _atom_site_label
  _atom_site_symmetry_multiplicity
  _atom_site_fract_x
  _atom_site_fract_y
  _atom_site_fract_z
  _atom_site_occupancy
  N   N1        1.0  0.7087663853825513  0.6272785365995279  0.46387473320851513  1.0000
  C   C1        1.0  0.6479223284932332  0.5763526437939535  0.45236518249985425  1.0000
  C   C2        1.0  0.5722297396968394  0.5130070915877714  0.4380578727733162  1.0000
  C   C3        1.0  0.513736881753225  0.5569182522780056  0.5210653917451997  1.0000
  C   C4        1.0  0.4394720454028496  0.4959204283855949  0.5074276851097941  1.0000
  C   C5        1.0  0.3773911627131183  0.5422818787243515  0.595336608696325  1.0000
  C   C6        1.0  0.3025305926511008  0.5633320035639551  0.5332277503613811  1.0000
  C   C7        1.0  0.24403921956888322  0.6070377810714929  0.6163564485626121  1.0000
  C   C8        1.0  0.1677287823605581  0.6287821232125772  0.5517808437959526  1.0000
  N   N2        1.0  0.10638814579510131  0.6462574844721629  0.4998622660168268  1.0000
  C   C9        1.0  0.2599166721358311  0.6299587499612502  0.7621577721136565  1.0000
  C   C10       1.0  0.3339916474511889  0.609337137382578  0.8246950462902545  1.0000
  C   C11       1.0  0.39247202255451463  0.5658270638327996  0.7420740464267466  1.0000
  C   C12       1.0  0.4249874883447732  0.39027239642684997  0.40919380695168606  1.0000
  C   C13       1.0  0.4834684379574792  0.34666706994551943  0.32662919538110957  1.0000
  C   C14       1.0  0.556949855304875  0.4077845241452882  0.34087755949241316  1.0000
  H   H1        1.0  0.5258783559271277  0.6398320723971316  0.5946600482984383  1.0000
  H   H2        1.0  0.2899008602586085  0.5476687336700397  0.4199036828327021  1.0000
  H   H3        1.0  0.2150877575353601  0.6637127623051435  0.8273685233159416  1.0000
  H   H4        1.0  0.34609705076227953  0.6267346491886303  0.9375942681968505  1.0000
  H   H5        1.0  0.4492155287189253  0.5487315386462148  0.7934251996708375  1.0000
  H   H6        1.0  0.3687330751217308  0.3400020184517907  0.39764035894854555  1.0000
  H   H7        1.0  0.4718297542456913  0.26500512640697327  0.2516952880848131  1.0000
  H   H8        1.0  0.6017858509006886  0.3730593439819845  0.27624054466529424  1.0000
  C   C15       1.0  0.909845943013632  0.21303228405637742  0.48429824117151243  1.0000
  C   C16       1.0  0.9459240653673291  0.29775694467826974  0.3735642335350322  1.0000
  C   C17       1.0  0.9744086906067015  0.2345370622880616  0.2571108026882287  1.0000
  C   C18       1.0  0.9665205129047144  0.08503621427113117  0.24717112939686792  1.0000
  C   C19       1.0  0.9332471646751167  0.9987469746293768  0.3599961582319511  1.0000
  C   C20       1.0  0.9053160403291877  0.060492863864377355  0.4794519965453725  1.0000
  C   C21       1.0  0.9992656115686775  0.016162154552847863  0.12335702450606068  1.0000
  F   F1        1.0  0.9981937420171147  0.11178787808682245  0.9996191231126823  1.0000
  F   F2        1.0  0.9569260282283422  0.8940277827592683  0.09201211456670233  1.0000
  F   F3        1.0  0.07418546916704072  0.976908605831881  0.16139336779950808  1.0000
  H   H9        1.0  0.7817110530957981  0.2872316896432596  0.7323130027065337  1.0000
  H   H10       1.0  0.950768504519381  0.4142394358846957  0.37549615754284016  1.0000
  H   H11       1.0  0.002081933940753178  0.30308120590572685  0.17396842667485157  1.0000
  H   H12       1.0  0.9307849094321657  0.8822189028728188  0.3565278711097781  1.0000
  H   H13       1.0  0.8707362330386539  0.9261104687942442  0.8258653906259537  1.0000
  C   C22       1.0  0.9061843217847598  0.6403874369336671  0.05791306430867005  1.0000
  C   C23       1.0  0.9600946244590088  0.7281344125502978  0.1290830749714409  1.0000
  C   C24       1.0  0.017510553343219826  0.8041593894161669  0.05313116512314031  1.0000
  C   C25       1.0  0.021482593036329822  0.7927920245210911  0.9045737298843468  1.0000
  C   C26       1.0  0.9678014543176159  0.7082355036186938  0.8317052577071262  1.0000
  C   C27       1.0  0.9089776353292612  0.6331376525518131  0.9058371441243742  1.0000
  N   N3        1.0  0.07230273109711671  0.8917476588971196  0.12738728760130202  1.0000
  H   H14       1.0  0.793007811748766  0.3528392765540478  0.1750667226039504  1.0000
  H   H15       1.0  0.9586769660951328  0.7349120772574165  0.24493907165462891  1.0000
  H   H16       1.0  0.06581636686935988  0.8506727039437325  0.8447636304338473  1.0000
  H   H17       1.0  0.9712442015983462  0.7043850311242417  0.7158648119082978  1.0000
  H   H18       1.0  0.8303694445716041  0.4437441845414074  0.6336123249946755  1.0000
  H   H19       1.0  0.07002636780595739  0.900690091596084  0.23850381534731224  1.0000
  H   H20       1.0  0.11553515795214109  0.9484407596110791  0.07177213330851129  1.0000
  Zn  Zn1       1.0  0.8235114845123743  0.6327515101138144  0.47426831586591534  1.0000
  Zn  Zn2       1.0  0.9916431345926409  0.6407725791927446  0.48948057103385123  1.0000
  C   C28       1.0  0.908478658913499  0.6287595354586692  0.745594056881207  1.0000
  C   C29       1.0  0.9066777869187814  0.6447664608827341  0.21815512742686516  1.0000
  C   C30       1.0  0.9061493706503515  0.9003537598890841  0.4746145013787735  1.0000
  C   C31       1.0  0.9090070273307199  0.3731704994179781  0.48913476462390815  1.0000
  O   O1        1.0  0.9706485169550652  0.649273760078104  0.2777068351949159  1.0000
  O   O2        1.0  0.9721159654361384  0.630338957091156  0.6975876894240507  1.0000
  O   O3        1.0  0.9702341805281142  0.8496546742272912  0.4787696947269984  1.0000
  O   O4        1.0  0.9725302440793625  0.4299580514527459  0.4965247163920852  1.0000
  O   O5        1.0  0.8426243176505386  0.8435660351182517  0.46722416530888267  1.0000
  O   O6        1.0  0.8445060930346581  0.6242520522808956  0.6860420731125263  1.0000
  O   O7        1.0  0.8430386391551872  0.6431868198277069  0.2661594833900851  1.0000
  O   O8        1.0  0.8449203666880973  0.4238710999560098  0.4849774728883385  1.0000
