data_image0
_chemical_formula_structural       NC9NC5H8C6ClH5C6ClH5Zn2C4O8
_chemical_formula_sum              "N2 C30 H18 Cl2 Zn2 O8"
_cell_length_a       17.807436237873137
_cell_length_b       10.30297070629231
_cell_length_c       10.302974078461048
_cell_angle_alpha    85.56070090075097
_cell_angle_beta     89.39214410348855
_cell_angle_gamma    88.39001192287228

_space_group_name_H-M_alt    "P 1"
_space_group_IT_number       1

loop_
  _space_group_symop_operation_xyz
  'x, y, z'

loop_
  _atom_site_type_symbol
  _atom_site_label
  _atom_site_symmetry_multiplicity
  _atom_site_fract_x
  _atom_site_fract_y
  _atom_site_fract_z
  _atom_site_occupancy
  N   N1        1.0  0.7074119429592188  0.38732038817546366  0.5576066330872891  1.0000
  C   C1        1.0  0.6468244258261101  0.35214199864623863  0.5465863369178066  1.0000
  C   C2        1.0  0.5714602136437565  0.3083839561189017  0.5328782850540266  1.0000
  C   C3        1.0  0.5533688779433822  0.23699243487589694  0.427910069199426  1.0000
  C   C4        1.0  0.48019411674470075  0.1943952875398347  0.41451783315127533  1.0000
  C   C5        1.0  0.4240619728257219  0.22281225286669626  0.506061371829974  1.0000
  C   C6        1.0  0.3462960647348285  0.17765733527946992  0.49191094044460226  1.0000
  C   C7        1.0  0.2841196824649514  0.25938716141701623  0.5178413311654759  1.0000
  C   C8        1.0  0.2108026164295985  0.21658704090490688  0.5044627716175323  1.0000
  C   C9        1.0  0.1475761437701414  0.3010073550945027  0.5307569464746789  1.0000
  N   N2        1.0  0.0967550480462265  0.3688754471615445  0.551896736809208  1.0000
  C   C10       1.0  0.1990783878690854  0.09179919705694228  0.4651284798339481  1.0000
  C   C11       1.0  0.2603974003243786  0.010055523111283993  0.4391897021776643  1.0000
  C   C12       1.0  0.3335950345598268  0.0524612302007168  0.4523657899975313  1.0000
  C   C13       1.0  0.4428447127871181  0.29469798080793397  0.6112487452056434  1.0000
  C   C14       1.0  0.5160723454558895  0.33710479570766116  0.6244853817723599  1.0000
  H   H1        1.0  0.5957638489079755  0.21451486921016372  0.3562209731599304  1.0000
  H   H2        1.0  0.4672816273096875  0.14073073469381936  0.33162472116094843  1.0000
  H   H3        1.0  0.2926171123035476  0.35682064075279607  0.5467088729301224  1.0000
  H   H4        1.0  0.1426133757017524  0.05777411915436659  0.45453708202080056  1.0000
  H   H5        1.0  0.2512016264529681  0.9134418881822665  0.4091221456658449  1.0000
  H   H6        1.0  0.3802358916881629  0.9867373803156785  0.43332365388737415  1.0000
  H   H7        1.0  0.401166621400999  0.31663666160710324  0.68423191214108  1.0000
  H   H8        1.0  0.5295131848894914  0.39198954982654066  0.7063372112638147  1.0000
  C   C15       1.0  0.9020870710515245  0.996850315760944  0.5547572536611762  1.0000
  C   C16       1.0  0.979662515637716  0.9900322003090449  0.5786255219277288  1.0000
  C   C17       1.0  0.01815338072010575  0.8696923894900787  0.5904682288378515  1.0000
  C   C18       1.0  0.9796625150379459  0.75492423166745  0.5786254608793251  1.0000
  C   C19       1.0  0.9020870790691061  0.7593352571939264  0.5547573278617155  1.0000
  C   C20       1.0  0.8636775020403757  0.8808727492252705  0.5429395122564227  1.0000
  Cl  Cl1       1.0  0.11506359382436693  0.8626784557752241  0.6202852931404901  1.0000
  H   H9        1.0  0.8728657597611711  0.32672169875992174  0.5457657681985497  1.0000
  H   H10       1.0  0.010516155254562065  0.07784573460288424  0.5881184008259817  1.0000
  H   H11       1.0  0.010516125544709265  0.6626445431821079  0.588118307986718  1.0000
  H   H12       1.0  0.8038489650117581  0.8852027595660675  0.5245315466250549  1.0000
  H   H13       1.0  0.8728657560974459  0.433693732257715  0.5457660133655264  1.0000
  C   C21       1.0  0.9020870896890094  0.37809278582725336  0.17351477389126657  1.0000
  C   C22       1.0  0.8890189622015573  0.24386936437798523  0.18294008660204608  1.0000
  C   C23       1.0  0.8825349523035805  0.1772713566520987  0.07065987793666673  1.0000
  C   C24       1.0  0.8890189958018482  0.24386943610694511  0.9478321871381827  1.0000
  C   C25       1.0  0.902087087772715  0.3780927189025125  0.9359997929927872  1.0000
  C   C26       1.0  0.9085574637230892  0.4445501742654201  0.049494684173250425  1.0000
  Cl  Cl2       1.0  0.8662097589764511  0.009594416302915132  0.08393787536205277  1.0000
  H   H14       1.0  0.9070100609466326  0.42865241147119293  0.49726735400946387  1.0000
  H   H15       1.0  0.8838214729509912  0.19048557479335648  0.27721398313306644  1.0000
  H   H16       1.0  0.8838215254489098  0.19048555378099508  0.862013016289259  1.0000
  H   H17       1.0  0.9186359621748484  0.5480673071553974  0.04129727557749163  1.0000
  H   H18       1.0  0.907009917991141  0.4286524067548052  0.6042397256245784  1.0000
  Zn  Zn1       1.0  0.8197679516201773  0.381994112448816  0.5559663886644279  1.0000
  Zn  Zn2       1.0  0.9843990211875642  0.37419114008554  0.5535476543044122  1.0000
  C   C27       1.0  0.9020854016028259  0.37292080574958564  0.7918737953675439  1.0000
  C   C28       1.0  0.9020833689711254  0.38326599967420294  0.3176403486130468  1.0000
  C   C29       1.0  0.9020832236044171  0.6152095262580535  0.5495838761328495  1.0000
  C   C30       1.0  0.9020854907924067  0.14097572202274522  0.559930337888709  1.0000
  O   O1        1.0  0.9645587531828298  0.382035326216021  0.36509231100857376  1.0000
  O   O2        1.0  0.9645611898890974  0.36822822432210556  0.7425856958363264  1.0000
  O   O3        1.0  0.9645585889129186  0.5638794702099337  0.5469348841868533  1.0000
  O   O4        1.0  0.9645612979815783  0.18638409227808594  0.5607430261410087  1.0000
  O   O5        1.0  0.8396056186456587  0.5698011629204545  0.5487710176463976  1.0000
  O   O6        1.0  0.8396082196184608  0.3741514768398009  0.7444217600734702  1.0000
  O   O7        1.0  0.8396057829621848  0.3879585334898705  0.36692681436189045  1.0000
  O   O8        1.0  0.8396083277578593  0.1923072902662275  0.5625776268299303  1.0000
