data_image0
_chemical_formula_structural       NC8NC6H8C7F3H5C7H8Zn2C4O8
_chemical_formula_sum              "N2 C32 H21 F3 Zn2 O8"
_cell_length_a       17.457602349358154
_cell_length_b       9.27228830945605
_cell_length_c       9.274345330872308
_cell_angle_alpha    84.82071203492734
_cell_angle_beta     92.44621323531219
_cell_angle_gamma    91.12935064675003

_space_group_name_H-M_alt    "P 1"
_space_group_IT_number       1

loop_
  _space_group_symop_operation_xyz
  'x, y, z'

loop_
  _atom_site_type_symbol
  _atom_site_label
  _atom_site_symmetry_multiplicity
  _atom_site_fract_x
  _atom_site_fract_y
  _atom_site_fract_z
  _atom_site_occupancy
  N   N1        1.0  0.720049082409003  0.6262006967553859  0.4649545512653004  1.0000
  C   C1        1.0  0.6592895620977646  0.5752667281420567  0.4534530911863228  1.0000
  C   C2        1.0  0.5837020591588837  0.5119111370485396  0.43915583877198516  1.0000
  C   C3        1.0  0.5245995187188455  0.5558805409128462  0.5221050076732248  1.0000
  C   C4        1.0  0.4504348500536383  0.49487314796775994  0.5084768876530492  1.0000
  C   C5        1.0  0.3877082845070526  0.5412962806071375  0.59632401573039  1.0000
  C   C6        1.0  0.3133038982253563  0.562302826056678  0.534258816768914  1.0000
  C   C7        1.0  0.2542019525965607  0.6060669317650793  0.6173290797166568  1.0000
  C   C8        1.0  0.1783658171913717  0.6277659636952828  0.5527988683209433  1.0000
  N   N2        1.0  0.1174065177445664  0.6452048956915841  0.5009167866655255  1.0000
  C   C9        1.0  0.2690085080203882  0.6290902038193302  0.7630279123411623  1.0000
  C   C10       1.0  0.3426241528809656  0.6085124712335914  0.8255212259897107  1.0000
  C   C11       1.0  0.4017113715338606  0.5649444257152887  0.7429583044935408  1.0000
  C   C12       1.0  0.4366718116821898  0.38915618908605376  0.4103120629228849  1.0000
  C   C13       1.0  0.4957591906777047  0.34549293020168914  0.3278054900815406  1.0000
  C   C14       1.0  0.5691359551176418  0.40662038192892846  0.3420438383164184  1.0000
  H   H1        1.0  0.5362004469941769  0.6388459995635842  0.5956479309201068  1.0000
  H   H2        1.0  0.3015065205550813  0.546560041036019  0.4210144103050135  1.0000
  H   H3        1.0  0.2237006265253621  0.6628899720318571  0.8281928236968101  1.0000
  H   H4        1.0  0.3539003219213676  0.6259892000686023  0.9383410854764265  1.0000
  H   H5        1.0  0.4580777082599855  0.5478849316520804  0.7942733604845573  1.0000
  H   H6        1.0  0.3805022574587671  0.33887770450220134  0.39876673640699667  1.0000
  H   H7        1.0  0.4846708895364726  0.263778408430946  0.2529242575168644  1.0000
  H   H8        1.0  0.6144467035677664  0.3718498484656736  0.2774522600283986  1.0000
  C   C15       1.0  0.9209786312761205  0.2119687745999428  0.4853637025393227  1.0000
  C   C16       1.0  0.9578700846033367  0.2966157374402072  0.3747075352870426  1.0000
  C   C17       1.0  0.9872100494470633  0.2333141441697293  0.2583359652885189  1.0000
  C   C18       1.0  0.9793948777197271  0.08380632186747028  0.24840327908273685  1.0000
  C   C19       1.0  0.9452928401606417  0.9975962471962582  0.3611489976519009  1.0000
  C   C20       1.0  0.9164843238071281  0.05942595398503059  0.48052086457705867  1.0000
  C   C21       1.0  0.013049379453403454  0.014845386567876595  0.12467620922028  1.0000
  F   F1        1.0  0.012886353263962258  0.11038428798959532  0.0010252892880633357  1.0000
  F   F2        1.0  0.9709400215574461  0.892689021260113  0.09335333316088712  1.0000
  F   F3        1.0  0.08768986365257114  0.9756185264817582  0.16268581489591094  1.0000
  H   H9        1.0  0.7910220960322306  0.2863422025778999  0.7332041222913896  1.0000
  H   H10       1.0  0.96270033395347  0.4130995842031857  0.3766381012503781  1.0000
  H   H11       1.0  0.015493965789949327  0.301799949989338  0.17525203414343649  1.0000
  H   H12       1.0  0.9428560591636039  0.8810657418764145  0.35768314855945227  1.0000
  H   H13       1.0  0.879360142398278  0.9252866238307325  0.8266907476327727  1.0000
  C   C22       1.0  0.9204487694623914  0.6390247494463064  0.05927825280360732  1.0000
  C   C23       1.0  0.8742567881921796  0.7384800230041564  0.11982525309351999  1.0000
  C   C24       1.0  0.8235424210247332  0.8261118681532191  0.032730510013230685  1.0000
  C   C25       1.0  0.8172405913347729  0.8151927985836658  0.8832715295884217  1.0000
  C   C26       1.0  0.8645999298563363  0.7198514621482974  0.8208046559650835  1.0000
  C   C27       1.0  0.9170141429032194  0.6323699718376317  0.9066062506869379  1.0000
  C   C28       1.0  0.7638708693727971  0.9117907245449879  0.7893936970257389  1.0000
  H   H14       1.0  0.010137906919528428  0.3289408148774535  0.19737708492369954  1.0000
  H   H15       1.0  0.876168005345831  0.7463165357507209  0.23577468521732015  1.0000
  H   H16       1.0  0.7885243010365113  0.9015362879026652  0.08231997669689406  1.0000
  H   H17       1.0  0.8617146835078965  0.7164227465473063  0.7041686942991201  1.0000
  H   H18       1.0  0.9801739990263746  0.42672692569573045  0.6495190186663633  1.0000
  H   H19       1.0  0.7946514782019094  0.01347403369779121  0.7525310058485193  1.0000
  H   H20       1.0  0.713399076247631  0.9387770028991524  0.8502468899066296  1.0000
  H   H21       1.0  0.7426132191177747  0.8574359507481404  0.6931473293019557  1.0000
  Zn  Zn1       1.0  0.8347178416421535  0.6316809630456939  0.4753408277618878  1.0000
  Zn  Zn2       1.0  0.0027377591249166944  0.6397127059772669  0.49054238948693185  1.0000
  C   C29       1.0  0.9176921537438725  0.6278793671967116  0.746475840559401  1.0000
  C   C30       1.0  0.9197652715660263  0.6435162090697746  0.21940767388866078  1.0000
  C   C31       1.0  0.9173531850797786  0.8992834557259837  0.4756867699239098  1.0000
  C   C32       1.0  0.920104191778872  0.3721103835634827  0.49019682616133453  1.0000
  O   O1        1.0  0.9832985998547575  0.648065293401296  0.2789175198302376  1.0000
  O   O2        1.0  0.9816820625646897  0.6294251046129842  0.6985032191407619  1.0000
  O   O3        1.0  0.9814074754493683  0.8485872856030787  0.479839042382215  1.0000
  O   O4        1.0  0.9835731300199978  0.4289031208423406  0.4975815831686867  1.0000
  O   O5        1.0  0.8538824134101429  0.8424905454414116  0.4683016288849884  1.0000
  O   O6        1.0  0.8541569916397834  0.6233300986891266  0.6869657188112086  1.0000
  O   O7        1.0  0.8557735362784902  0.6419702508195733  0.26737828522734164  1.0000
  O   O8        1.0  0.8560480660568822  0.4228080670902694  0.4860424567907444  1.0000
