data_image0
_chemical_formula_structural       NC9NC5H8C7OH6C9H8Zn2C4O8
_chemical_formula_sum              "N2 C34 H22 O9 Zn2"
_cell_length_a       17.807436237873137
_cell_length_b       9.274078303013075
_cell_length_c       9.275155815604963
_cell_angle_alpha    86.23195099776972
_cell_angle_beta     89.76311116066846
_cell_angle_gamma    87.81002060722456

_space_group_name_H-M_alt    "P 1"
_space_group_IT_number       1

loop_
  _space_group_symop_operation_xyz
  'x, y, z'

loop_
  _atom_site_type_symbol
  _atom_site_label
  _atom_site_symmetry_multiplicity
  _atom_site_fract_x
  _atom_site_fract_y
  _atom_site_fract_z
  _atom_site_occupancy
  N   N1        1.0  0.6941406753869023  0.5279045461470546  0.40364790880826984  1.0000
  C   C1        1.0  0.6337201959136505  0.4887152289191192  0.3912909775028739  1.0000
  C   C2        1.0  0.5585637601243039  0.43996803388127237  0.37592029685093165  1.0000
  C   C3        1.0  0.5405172681788561  0.35966241115283415  0.2591442460172648  1.0000
  C   C4        1.0  0.4675446006771255  0.3122080242963081  0.2441282210974618  1.0000
  C   C5        1.0  0.4115718042397045  0.3446396247957755  0.34585091192538675  1.0000
  C   C6        1.0  0.33402028829988  0.29433624263901614  0.32998424967351014  1.0000
  C   C7        1.0  0.2714569923722955  0.38538770755340246  0.35905604248719225  1.0000
  C   C8        1.0  0.1983432589352187  0.33770792936499827  0.34405448899506874  1.0000
  C   C9        1.0  0.1347153914601945  0.43175215279321866  0.3735395452420014  1.0000
  N   N2        1.0  0.0835716059663844  0.5073572123108261  0.3972447037906852  1.0000
  C   C10       1.0  0.1872106986569198  0.19868990419542798  0.29995210754922486  1.0000
  C   C11       1.0  0.2489166761058664  0.10762297463893544  0.2708709558321376  1.0000
  C   C12       1.0  0.3219125695297297  0.15486262995705546  0.28564636245733577  1.0000
  C   C13       1.0  0.4303075829054904  0.42549640515226494  0.462871982193946  1.0000
  C   C14       1.0  0.5033336838762625  0.4727378588790163  0.4777146083079822  1.0000
  H   H1        1.0  0.5827887642262555  0.3340160633297693  0.17948292173817149  1.0000
  H   H2        1.0  0.45465161486499245  0.2518054062650814  0.15191999754884744  1.0000
  H   H3        1.0  0.2794858839679493  0.49391472522297564  0.39144339354394564  1.0000
  H   H4        1.0  0.130907488600667  0.16078602915639428  0.28807533917179384  1.0000
  H   H5        1.0  0.2401803598851462  0.9999956219421235  0.2371543312675375  1.0000
  H   H6        1.0  0.3688710125461592  0.08165965795593588  0.2642773359195498  1.0000
  H   H7        1.0  0.3887607344566366  0.4505561382700356  0.5439679765213525  1.0000
  H   H8        1.0  0.5167441567036516  0.5344864584132516  0.5687711705161285  1.0000
  C   C15       1.0  0.8910953074127644  0.09403417772175682  0.39911708940007706  1.0000
  C   C16       1.0  0.8761486237688597  0.17716657478682718  0.26925669543497843  1.0000
  C   C17       1.0  0.8547252398660609  0.11211658449010309  0.14442585207087522  1.0000
  C   C18       1.0  0.8480486100784633  0.9618669234543924  0.14937882655058776  1.0000
  C   C19       1.0  0.863832288729502  0.8776086642547436  0.2765430917586482  1.0000
  C   C20       1.0  0.8866242625838097  0.9412162206398287  0.4017879199750647  1.0000
  C   C21       1.0  0.8388142271525463  0.20271855110912362  0.010550583729036056  1.0000
  O   O1        1.0  0.819135722981646  0.14747696863971615  0.8967551577529904  1.0000
  H   H9        1.0  0.889922241817196  0.173780056098779  0.7539957302370428  1.0000
  H   H10       1.0  0.8794997571372264  0.29382860139052824  0.2660929932779139  1.0000
  H   H11       1.0  0.8313061315445962  0.9090792829819533  0.054504888073191315  1.0000
  H   H12       1.0  0.8599129402143317  0.7613716713210842  0.2758365438968229  1.0000
  H   H13       1.0  0.8891221493445818  0.6442469337481261  0.6401065890136257  1.0000
  H   H14       1.0  0.8439967564748532  0.31874664935629515  0.008950893651204828  1.0000
  C   C22       1.0  0.887502208586264  0.5140517249142553  0.9772323938378529  1.0000
  C   C23       1.0  0.82834674817339  0.5874402943652282  0.04623540312923291  1.0000
  C   C24       1.0  0.7741738636941418  0.6701500834291019  0.9660862378961661  1.0000
  C   C25       1.0  0.7781507937107766  0.6811964662869534  0.8154735690583186  1.0000
  C   C26       1.0  0.8357981869760633  0.607112662536395  0.7447846150971524  1.0000
  C   C27       1.0  0.890217332774418  0.5211986518039493  0.8236725326928802  1.0000
  C   C28       1.0  0.7224411717865408  0.7673564464989926  0.7330473848170755  1.0000
  C   C29       1.0  0.675794380237115  0.8395035365392483  0.6640000226146778  1.0000
  C   C30       1.0  0.6191968826837075  0.9270418054033809  0.5802112384148406  1.0000
  H   H15       1.0  0.06253292280791123  0.3884673122260611  0.08695552651800886  1.0000
  H   H16       1.0  0.8249918636387552  0.5836198297084989  0.16306984459913698  1.0000
  H   H17       1.0  0.7295439532302289  0.726706978726968  0.021799306205849467  1.0000
  H   H18       1.0  0.8371507948209522  0.6138224138544282  0.627636874365483  1.0000
  H   H19       1.0  0.007035705228756184  0.43152300813304323  0.5479132772437505  1.0000
  H   H20       1.0  0.6344448712731828  0.9303806534008481  0.4639742440792136  1.0000
  H   H21       1.0  0.5635021641425256  0.8786280522617582  0.5959957921341035  1.0000
  H   H22       1.0  0.6167073166170307  0.03852528486634954  0.6170983757737329  1.0000
  Zn  Zn1       1.0  0.8065220756377424  0.5219712508407921  0.4018084050446973  1.0000
  Zn  Zn2       1.0  0.9711902875796216  0.5132788493140845  0.39909601874178  1.0000
  C   C31       1.0  0.8897327787350361  0.5141013109032673  0.6636591684175024  1.0000
  C   C32       1.0  0.8879813735023525  0.5211505155834995  0.1372453729421783  1.0000
  C   C33       1.0  0.887447084286258  0.7810325104127527  0.3955400163536047  1.0000
  C   C34       1.0  0.890267021154237  0.2542175866194101  0.4053645973048521  1.0000
  O   O2        1.0  0.9506329470939489  0.5202279204124203  0.18991783416063268  1.0000
  O   O3        1.0  0.9520605722565393  0.5084254827372736  0.6089276504531989  1.0000
  O   O4        1.0  0.9502140074846802  0.7239758592685588  0.39241955677871365  1.0000
  O   O5        1.0  0.9524794552746156  0.30467755625374404  0.40642582073270184  1.0000
  O   O6        1.0  0.8252328517495366  0.730572546868929  0.39447860397180423  1.0000
  O   O7        1.0  0.8270794071250781  0.5150239027600443  0.6109866262655417  1.0000
  O   O8        1.0  0.82565177671959  0.526826275534988  0.19197507706590122  1.0000
  O   O9        1.0  0.8274982852982374  0.3112759019714997  0.4084831716584154  1.0000
