data_image0
_chemical_formula_structural       NC9NC5H8C6BrH5C6NCOH7Zn2C4O8
_chemical_formula_sum              "N3 C31 H20 Br1 O9 Zn2"
_cell_length_a       17.807436237873137
_cell_length_b       10.302969083221269
_cell_length_c       10.29962270195845
_cell_angle_alpha    85.57966053933701
_cell_angle_beta     89.41121966804023
_cell_angle_gamma    88.39001038669201

_space_group_name_H-M_alt    "P 1"
_space_group_IT_number       1

loop_
  _space_group_symop_operation_xyz
  'x, y, z'

loop_
  _atom_site_type_symbol
  _atom_site_label
  _atom_site_symmetry_multiplicity
  _atom_site_fract_x
  _atom_site_fract_y
  _atom_site_fract_z
  _atom_site_occupancy
  N   N1        1.0  0.7071414277916063  0.3868545364072391  0.5571780003010729  1.0000
  C   C1        1.0  0.6465518445265803  0.3516725799107745  0.5461544355157579  1.0000
  C   C2        1.0  0.5711850623004587  0.30791010046349787  0.5324423178487776  1.0000
  C   C3        1.0  0.5530740427906135  0.23648464839957417  0.4274429323974669  1.0000
  C   C4        1.0  0.4798967707563817  0.1938831663902647  0.4140467241960786  1.0000
  C   C5        1.0  0.423781793733197  0.222329717318271  0.5056174507336773  1.0000
  C   C6        1.0  0.3460132326591176  0.17717021962757928  0.4914628223334121  1.0000
  C   C7        1.0  0.2838417119445192  0.25890843854434276  0.5174009041414824  1.0000
  C   C8        1.0  0.2105221376414133  0.21610398774406403  0.5040183765304771  1.0000
  C   C9        1.0  0.1473005947182797  0.3005328127179383  0.5303203501639187  1.0000
  N   N2        1.0  0.0964834623662608  0.3684077472198781  0.5514664104996654  1.0000
  C   C10       1.0  0.1987905345093668  0.09130341259648311  0.4646724181045576  1.0000
  C   C11       1.0  0.2601046838367707  0.009551343159168502  0.43872594687174793  1.0000
  C   C12       1.0  0.3333047883759651  0.051961315044752654  0.45190594266718453  1.0000
  C   C13       1.0  0.4425842585957019  0.29424944698103284  0.6108360587361858  1.0000
  C   C14       1.0  0.5158143729230148  0.3366605462424406  0.624076621263491  1.0000
  H   H1        1.0  0.5954555701091098  0.21398391377521198  0.35573254517506836  1.0000
  H   H2        1.0  0.4669687370306866  0.14019181892604893  0.33112899728971223  1.0000
  H   H3        1.0  0.2923445539138066  0.35635126240257664  0.5462770072858387  1.0000
  H   H4        1.0  0.1423235366250115  0.05727490651286282  0.4540778789161868  1.0000
  H   H5        1.0  0.2509032727816262  0.9129279760808474  0.40864947242026783  1.0000
  H   H6        1.0  0.3799420754772404  0.9862313009095717  0.4328581593418057  1.0000
  H   H7        1.0  0.4009198535430556  0.31621171480581745  0.6838409013141329  1.0000
  H   H8        1.0  0.5292705613556336  0.391571758711992  0.7059527562055046  1.0000
  C   C15       1.0  0.9018160273436809  0.9963834773531138  0.5543278279081381  1.0000
  C   C16       1.0  0.9797083853264519  0.9897864571466003  0.5750712938495659  1.0000
  C   C17       1.0  0.01834718734948071  0.8695761293384997  0.5853610010405528  1.0000
  C   C18       1.0  0.9797084442670803  0.7547040946742106  0.5750710465689144  1.0000
  C   C19       1.0  0.9018160388781393  0.7588684941356371  0.5543277416426404  1.0000
  C   C20       1.0  0.8632460002227479  0.8802903791974764  0.544056236456884  1.0000
  Br  Br1       1.0  0.12429420251891088  0.8622574016275089  0.6135760372442935  1.0000
  H   H9        1.0  0.8724980962182073  0.32616819825543675  0.5465195994454732  1.0000
  H   H10       1.0  0.010715860195891436  0.07764380155278117  0.5833290183366187  1.0000
  H   H11       1.0  0.010715948487963534  0.6625628630386088  0.5833284320564422  1.0000
  H   H12       1.0  0.803172418153936  0.8844401602448521  0.5280582513402732  1.0000
  H   H13       1.0  0.8724978814266833  0.43313421684769976  0.546521521593444  1.0000
  C   C21       1.0  0.901744545246324  0.3775028194687735  0.17297205317890563  1.0000
  C   C22       1.0  0.8230254569059977  0.39124789653438685  0.1720333026312939  1.0000
  C   C23       1.0  0.7835049825771256  0.40029192904882605  0.05459579482185162  1.0000
  C   C24       1.0  0.8231915706850463  0.3915182914823421  0.9368586732280066  1.0000
  C   C25       1.0  0.9018875209912391  0.37774916456948016  0.9356834815958224  1.0000
  C   C26       1.0  0.9407375352443474  0.3713396219989564  0.05425014057624655  1.0000
  N   N3        1.0  0.7028542522319933  0.4123461235610637  0.05766155498818848  1.0000
  C   C27       1.0  0.6587804811237563  0.48529520806749016  0.9602345762822848  1.0000
  O   O1        1.0  0.6890436553154001  0.558907259675204  0.872680665594761  1.0000
  H   H14       1.0  0.05017507528385501  0.3501884134750417  0.3821026784613033  1.0000
  H   H15       1.0  0.7920058374943928  0.39609588075424274  0.2626440138700359  1.0000
  H   H16       1.0  0.7927002726720296  0.39271787851951756  0.8464537461397441  1.0000
  H   H17       1.0  0.0014222309098217423  0.3607604344040445  0.0540963906569909  1.0000
  H   H18       1.0  0.9320193504750128  0.37049853794946075  0.6079387245560164  1.0000
  H   H19       1.0  0.6743279441202829  0.3733312067450183  0.14017734778612434  1.0000
  H   H20       1.0  0.5981939362722197  0.48006859762399823  0.964018200209841  1.0000
  Zn  Zn1       1.0  0.8194971289339205  0.38152772976326  0.5555372693946734  1.0000
  Zn  Zn2       1.0  0.98412774502794  0.37372397450824835  0.5531178176501439  1.0000
  C   C28       1.0  0.901858819176577  0.3725306511712778  0.7915147503794533  1.0000
  C   C29       1.0  0.901767852570413  0.38272260602256547  0.3171404377069067  1.0000
  C   C30       1.0  0.9018112005250861  0.614741120532829  0.5491528291304542  1.0000
  C   C31       1.0  0.9018154150579347  0.14051057954039425  0.5595024290178907  1.0000
  O   O2        1.0  0.9642521355492125  0.3815072656859573  0.36460649522156396  1.0000
  O   O3        1.0  0.9643253644498898  0.367822142304584  0.7422120111399837  1.0000
  O   O4        1.0  0.964286069827147  0.5634101998418701  0.5465030573580187  1.0000
  O   O5        1.0  0.9642913739764253  0.1859192200673785  0.5603153524578202  1.0000
  O   O6        1.0  0.8393334438050845  0.5693324868685794  0.5483397354058064  1.0000
  O   O7        1.0  0.8393727384114459  0.3737459891163628  0.7440486199445957  1.0000
  O   O8        1.0  0.8392995092680458  0.38743106674950867  0.3664415426787164  1.0000
  O   O9        1.0  0.8393387477104378  0.1918430118766723  0.5621504972794911  1.0000
