data_image0
_chemical_formula_structural       NC8NC6H8C6OCH8C6NH7Zn2C4O8
_chemical_formula_sum              "N3 C31 H23 O9 Zn2"
_cell_length_a       17.457602349358154
_cell_length_b       9.273888216677433
_cell_length_c       9.274774538082514
_cell_angle_alpha    85.2669921481321
_cell_angle_beta     93.23827242343725
_cell_angle_gamma    91.10627454168798

_space_group_name_H-M_alt    "P 1"
_space_group_IT_number       1

loop_
  _space_group_symop_operation_xyz
  'x, y, z'

loop_
  _atom_site_type_symbol
  _atom_site_label
  _atom_site_symmetry_multiplicity
  _atom_site_fract_x
  _atom_site_fract_y
  _atom_site_fract_z
  _atom_site_occupancy
  N   N1        1.0  0.7088320906604259  0.6257662383655587  0.4780819417172424  1.0000
  C   C1        1.0  0.6479859775159168  0.5748876731293102  0.466127774576109  1.0000
  C   C2        1.0  0.5722908309907654  0.5116009906031347  0.4512674166478938  1.0000
  C   C3        1.0  0.5137997460656909  0.5554713428089766  0.5346583088418506  1.0000
  C   C4        1.0  0.4395324467817251  0.49453020675412596  0.5204880512121761  1.0000
  C   C5        1.0  0.3774534360468614  0.5408485714514915  0.6088017406558823  1.0000
  C   C6        1.0  0.3025937159341738  0.5618791335266982  0.5468766637117728  1.0000
  C   C7        1.0  0.24410410757765694  0.6055442934210538  0.6303869420052377  1.0000
  C   C8        1.0  0.1677945483493521  0.6272684276324696  0.5660011796016005  1.0000
  N   N2        1.0  0.10645461739356299  0.6447275483054709  0.5142351731835515  1.0000
  C   C9        1.0  0.2599824856337551  0.6284439608925272  0.7763883806422458  1.0000
  C   C10       1.0  0.33405662830199423  0.607841512843825  0.8387456146209904  1.0000
  C   C11       1.0  0.3925352465816364  0.5643718750313278  0.7557447432891089  1.0000
  C   C12       1.0  0.4250436239307064  0.38898035794507546  0.4213317964695953  1.0000
  C   C13       1.0  0.48352281287366294  0.3454155557235725  0.3383864818101021  1.0000
  C   C14       1.0  0.5570066979850099  0.4064762109083162  0.35316844136669046  1.0000
  H   H1        1.0  0.5259445680841501  0.6383081076355279  0.608976857405088  1.0000
  H   H2        1.0  0.28996335109955335  0.5462304201668153  0.4334158455676913  1.0000
  H   H3        1.0  0.215154933932573  0.6621666042162375  0.8418938265022615  1.0000
  H   H4        1.0  0.3461627340793939  0.6252228564120568  0.951796728211894  1.0000
  H   H5        1.0  0.4492780624731726  0.5472922374337248  0.8069466413900701  1.0000
  H   H6        1.0  0.36878718092045837  0.3387566983419008  0.40933945510822456  1.0000
  H   H7        1.0  0.47188083186484114  0.2638295040561591  0.26273961220711683  1.0000
  H   H8        1.0  0.6018412914683021  0.37178330231220524  0.2882282529500553  1.0000
  C   C15       1.0  0.9098949221044896  0.2119049622490372  0.49488880830540904  1.0000
  C   C16       1.0  0.8915538954451906  0.2954148901030298  0.36431715114721364  1.0000
  C   C17       1.0  0.8667044038094095  0.23057775834861438  0.23881565428162554  1.0000
  C   C18       1.0  0.8600525205442101  0.0792344290245679  0.2434093160359001  1.0000
  C   C19       1.0  0.8791872676172535  0.9945914051241405  0.37127709592151925  1.0000
  C   C20       1.0  0.9053992011950478  0.05857793966223723  0.4974414268900449  1.0000
  O   O1        1.0  0.8488423651544725  0.3202407058217034  0.11253042679658076  1.0000
  C   C21       1.0  0.8227979207612525  0.26922988940060266  0.977351428805016  1.0000
  H   H9        1.0  0.9173139884027974  0.2858527223073162  0.8507100103247482  1.0000
  H   H10       1.0  0.894780227113149  0.4124815380901268  0.3603328393879235  1.0000
  H   H11       1.0  0.8408075522025393  0.025692001569468603  0.14832239221176358  1.0000
  H   H12       1.0  0.8751988431892392  0.8779369740735868  0.37043390104598606  1.0000
  H   H13       1.0  0.9136077425823569  0.7579657845475701  0.7363927663632093  1.0000
  H   H14       1.0  0.7677960159787278  0.2083382752938152  0.9889829295803638  1.0000
  H   H15       1.0  0.8667035467351881  0.19909188208662054  0.9380694712863762  1.0000
  H   H16       1.0  0.813203898882556  0.3631521436576155  0.8966904212994606  1.0000
  C   C22       1.0  0.9062505563659585  0.6388629560484933  0.07223472211183513  1.0000
  C   C23       1.0  0.9601644020350213  0.7265283847183193  0.14417082140083481  1.0000
  C   C24       1.0  0.017583400610202693  0.8024827083827442  0.06888265944443628  1.0000
  C   C25       1.0  0.02155498131866307  0.7911259076569046  0.9202259796573813  1.0000
  C   C26       1.0  0.9678704284274047  0.7066479686778571  0.8466192736153277  1.0000
  C   C27       1.0  0.9090435771830098  0.6316199091955079  0.9200955065567467  1.0000
  N   N3        1.0  0.07237911495077176  0.8899895784091634  0.14390348494020966  1.0000
  H   H17       1.0  0.7930624358826106  0.35158202624147905  0.18687789644328756  1.0000
  H   H18       1.0  0.9587470173356305  0.7332997506571959  0.2600859915405207  1.0000
  H   H19       1.0  0.06589109222309153  0.8489527961351553  0.8609212164862519  1.0000
  H   H20       1.0  0.9713130202360633  0.702801074589082  0.7307452106671577  1.0000
  H   H21       1.0  0.8304277392093636  0.4424024524829564  0.6462171582802565  1.0000
  H   H22       1.0  0.07010311273180281  0.8989237005301458  0.25509808598656325  1.0000
  H   H23       1.0  0.11561383092585298  0.9466299918454635  0.08878329858605682  1.0000
  Zn  Zn1       1.0  0.8235774107746946  0.6312341256158813  0.4885233070216397  1.0000
  Zn  Zn2       1.0  0.991709384724883  0.6392477403787065  0.5038055913814465  1.0000
  C   C28       1.0  0.9085444239902584  0.6272458608703095  0.7598141954809539  1.0000
  C   C29       1.0  0.9067441983135855  0.6432379103868358  0.2325150169801018  1.0000
  C   C30       1.0  0.906226101995997  0.8985876813903155  0.4912058356217148  1.0000
  C   C31       1.0  0.9090624723865007  0.3718943544467874  0.5011234433685021  1.0000
  O   O2        1.0  0.9707151103428963  0.6477410207599115  0.2921060764252261  1.0000
  O   O3        1.0  0.9721817942858378  0.6288238146799914  0.7118216174101573  1.0000
  O   O4        1.0  0.9703088647764517  0.8479357125164517  0.4949183927125327  1.0000
  O   O5        1.0  0.9725879820688991  0.42862913142631887  0.5090091876972713  1.0000
  O   O6        1.0  0.842698756055454  0.84185273183525  0.48331970548313263  1.0000
  O   O7        1.0  0.8445716761109616  0.6227425666858128  0.7002228584289132  1.0000
  O   O8        1.0  0.8431049867681915  0.6416597373585315  0.2805055816412596  1.0000
  O   O9        1.0  0.8449778589023531  0.4225478367890523  0.4974088011162021  1.0000
