data_image0
_chemical_formula_structural       NC8NC6H8C7NH5C7NH5Zn2C4O8
_chemical_formula_sum              "N4 C32 H18 Zn2 O8"
_cell_length_a       17.457602349358154
_cell_length_b       10.302819778424748
_cell_length_c       10.302823150593486
_cell_angle_alpha    85.56070276465681
_cell_angle_beta     92.87590926728866
_cell_angle_gamma    91.68806980205999

_space_group_name_H-M_alt    "P 1"
_space_group_IT_number       1

loop_
  _space_group_symop_operation_xyz
  'x, y, z'

loop_
  _atom_site_type_symbol
  _atom_site_label
  _atom_site_symmetry_multiplicity
  _atom_site_fract_x
  _atom_site_fract_y
  _atom_site_fract_z
  _atom_site_occupancy
  N   N1        1.0  0.7224249877788074  0.45238524418542836  0.6269397271317318  1.0000
  C   C1        1.0  0.6613470548123378  0.40647428179663403  0.6163273528050246  1.0000
  C   C2        1.0  0.5853635231689093  0.3493667571735264  0.6031350980893158  1.0000
  C   C3        1.0  0.5268348942627471  0.38951600287738275  0.678009124828046  1.0000
  C   C4        1.0  0.4522894453676941  0.3345260832436059  0.6654311142437392  1.0000
  C   C5        1.0  0.3901699201216315  0.37691777299303353  0.7447255482654218  1.0000
  C   C6        1.0  0.315623256553325  0.39538057462210063  0.6889796509693553  1.0000
  C   C7        1.0  0.2570946248039934  0.4353459516096896  0.7639615972848601  1.0000
  C   C8        1.0  0.1811098059207342  0.45441442343083294  0.7060009387506907  1.0000
  N   N2        1.0  0.12003092804589288  0.4697390970544961  0.6594007202889227  1.0000
  C   C9        1.0  0.2726204939185188  0.4570915919858596  0.8951977979092318  1.0000
  C   C10       1.0  0.3463824534754968  0.4390176556525589  0.9513311709327408  1.0000
  C   C11       1.0  0.4048994803041447  0.3992322761814322  0.8768068013804595  1.0000
  C   C12       1.0  0.4375612712168372  0.23870971153834364  0.5765466097340166  1.0000
  C   C13       1.0  0.4960781819754528  0.19883905859157291  0.5020724599998694  1.0000
  C   C14       1.0  0.5698388652103925  0.25394131779491125  0.5152002467032915  1.0000
  H   H1        1.0  0.5391789342039892  0.46468689081677605  0.7446187973033389  1.0000
  H   H2        1.0  0.3032782557541837  0.3804151635767845  0.586987391574521  1.0000
  H   H3        1.0  0.2277595219053876  0.4879646625384775  0.9540150541706196  1.0000
  H   H4        1.0  0.358213743251627  0.4555402453294526  0.05295028777850763  1.0000
  H   H5        1.0  0.46138509449965914  0.3842450085646538  0.9228986914974335  1.0000
  H   H6        1.0  0.3810766162754864  0.1933882346715725  0.5658981299607475  1.0000
  H   H7        1.0  0.48424795183351654  0.12478428895943616  0.4342648448243578  1.0000
  H   H8        1.0  0.6146998811308686  0.22219881762017657  0.45689395391947074  1.0000
  C   C15       1.0  0.9212316187507448  0.07980928375296203  0.6431761108028693  1.0000
  C   C16       1.0  0.8764497427397805  0.06795574600398857  0.7532083968898502  1.0000
  C   C17       1.0  0.8541703181651799  0.9449559181445336  0.8079504984147559  1.0000
  C   C18       1.0  0.876449804660063  0.8326547388958828  0.7532084061997466  1.0000
  C   C19       1.0  0.9212316313968236  0.8423053114871878  0.643176150422839  1.0000
  C   C20       1.0  0.9433886083260836  0.9663772043163071  0.5887349215971727  1.0000
  C   C21       1.0  0.8082624045684764  0.9339334161965623  0.9207497678446872  1.0000
  N   N3        1.0  0.7713674641588901  0.9250749616899272  0.011403377075113075  1.0000
  H   H9        1.0  0.9381939007705354  0.4116215459785879  0.6014980026534558  1.0000
  H   H10       1.0  0.8587882700620897  0.15413951503216206  0.7966036947347366  1.0000
  H   H11       1.0  0.8587883658151989  0.7379899150870329  0.7966036717095462  1.0000
  H   H12       1.0  0.9779228086798267  0.9746687896147277  0.5038819867911903  1.0000
  H   H13       1.0  0.9381939711532937  0.5186384684635647  0.6014981070731324  1.0000
  C   C22       1.0  0.9212316337149202  0.461057338594439  0.2619280593916542  1.0000
  C   C23       1.0  0.8408347581000779  0.4669583774623949  0.25353491278419993  1.0000
  C   C24       1.0  0.8008365546461682  0.46989409334860244  0.1322567354827091  1.0000
  C   C25       1.0  0.8408347431816794  0.4669582920358677  0.018233917717692893  1.0000
  C   C26       1.0  0.9212316332568242  0.46105733182961206  0.024424225969180702  1.0000
  C   C27       1.0  0.9610100055833907  0.45813761474326453  0.1467838822538552  1.0000
  C   C28       1.0  0.7184179976296691  0.47594331405487766  0.12478162753633715  1.0000
  N   N4        1.0  0.6521804072060926  0.48080506979232074  0.11877404848026041  1.0000
  H   H14       1.0  0.9516842986730545  0.458822471863348  0.5924294352446775  1.0000
  H   H15       1.0  0.8091272538148226  0.46928567084442996  0.3410834010404482  1.0000
  H   H16       1.0  0.8091272842427504  0.46928557658119807  0.9249338670268736  1.0000
  H   H17       1.0  0.023009180129097473  0.45358696825294587  0.15240703160624758  1.0000
  H   H18       1.0  0.9516842729680174  0.45882226233037726  0.6994467328384739  1.0000
  Zn  Zn1       1.0  0.837165473410894  0.4573897096150521  0.6363147646532337  1.0000
  Zn  Zn2       1.0  0.005290428163465144  0.4647239870400648  0.6500363119252206  1.0000
  C   C29       1.0  0.9212299047569428  0.455885128538577  0.8802959731548725  1.0000
  C   C30       1.0  0.9212278327367124  0.4662302863282659  0.4060553806886258  1.0000
  C   C31       1.0  0.9212276779500966  0.6981771969555113  0.6380022983005125  1.0000
  C   C32       1.0  0.9212300021742406  0.22393665558020714  0.6483491200773663  1.0000
  O   O1        1.0  0.9850291012316645  0.4707440308833337  0.4596330820141197  1.0000
  O   O2        1.0  0.9850315867725425  0.4569369514206927  0.8371322349861772  1.0000
  O   O3        1.0  0.9850289285090041  0.65259082334824  0.6414783080761111  1.0000
  O   O4        1.0  0.9850317021255475  0.27509016574049805  0.6552869068981377  1.0000
  O   O5        1.0  0.8574241420760159  0.6470235284132033  0.6310641649909972  1.0000
  O   O6        1.0  0.8574268003360769  0.4513712163153649  0.8267180226773632  1.0000
  O   O7        1.0  0.8574243148462655  0.4651782505380915  0.44921730880351407  1.0000
  O   O8        1.0  0.8574269157370082  0.2695243761091284  0.6448712310242612  1.0000
