data_image0
_chemical_formula_structural       NC9NC5H8C7H8C6H6Zn2C4O8
_chemical_formula_sum              "N2 C31 H22 Zn2 O8"
_cell_length_a       17.807436237873137
_cell_length_b       9.274341958901593
_cell_length_c       10.681121600428288
_cell_angle_alpha    85.52848388196088
_cell_angle_beta     89.39214167786866
_cell_angle_gamma    87.76967926577302

_space_group_name_H-M_alt    "P 1"
_space_group_IT_number       1

loop_
  _space_group_symop_operation_xyz
  'x, y, z'

loop_
  _atom_site_type_symbol
  _atom_site_label
  _atom_site_symmetry_multiplicity
  _atom_site_fract_x
  _atom_site_fract_y
  _atom_site_fract_z
  _atom_site_occupancy
  N   N1        1.0  0.6987180691738853  0.5418060999127441  0.6080339319848329  1.0000
  C   C1        1.0  0.6383510045299937  0.5027103993621063  0.5974199760555385  1.0000
  C   C2        1.0  0.5632610109667275  0.45407965332099853  0.5842173673055608  1.0000
  C   C3        1.0  0.5456170668605889  0.37473827705289153  0.48299822449517515  1.0000
  C   C4        1.0  0.47270924929787816  0.32739769839011346  0.47009971651996274  1.0000
  C   C5        1.0  0.4163990225255144  0.3589790608617116  0.5583892323888908  1.0000
  C   C6        1.0  0.3389160868537735  0.30879588988596374  0.5447605485072662  1.0000
  C   C7        1.0  0.2762275280982178  0.3996267906944586  0.5697353143509993  1.0000
  C   C8        1.0  0.2031786776692211  0.35206063666189746  0.5568500920649968  1.0000
  C   C9        1.0  0.1394231680495596  0.44588162641033335  0.5821745250356456  1.0000
  N   N2        1.0  0.0881767632105444  0.5213072112497488  0.6025346712922341  1.0000
  C   C10       1.0  0.192236457364196  0.21337696632851855  0.5189657782475416  1.0000
  C   C11       1.0  0.254067733085364  0.12253067568037057  0.49398292876513383  1.0000
  C   C12       1.0  0.3269996233879958  0.1696584961347698  0.5066730289626264  1.0000
  C   C13       1.0  0.4347312738447882  0.4388696765230773  0.6598195464351666  1.0000
  C   C14       1.0  0.5076931556368266  0.4859987281549556  0.672568051240753  1.0000
  H   H1        1.0  0.5881528997518681  0.34975770159518293  0.4138575047118851  1.0000
  H   H2        1.0  0.4601330613871984  0.2677572896237239  0.3901659889756526  1.0000
  H   H3        1.0  0.2841143713865798  0.5079100343735456  0.5975360213509495  1.0000
  H   H4        1.0  0.135984670223836  0.17556300513119072  0.5087650056208421  1.0000
  H   H5        1.0  0.24547740808219082  0.015158570529690163  0.46502431438140124  1.0000
  H   H6        1.0  0.3740523522664588  0.09661592702237765  0.48833528640878776  1.0000
  H   H7        1.0  0.3929156975240656  0.4632513594141665  0.7302087705846121  1.0000
  H   H8        1.0  0.52079004694598  0.5469952143023389  0.7514967998001261  1.0000
  C   C15       1.0  0.8958401537332917  0.10785500692532901  0.6054650760239166  1.0000
  C   C16       1.0  0.9047233296770414  0.19073231454678607  0.4906763237406915  1.0000
  C   C17       1.0  0.9061301151710667  0.12570405669993634  0.3772087714843335  1.0000
  C   C18       1.0  0.8978627659803854  0.9765089304076788  0.3758131062672756  1.0000
  C   C19       1.0  0.891320541044774  0.8919005310668912  0.48964216821673245  1.0000
  C   C20       1.0  0.8910619006467063  0.9552468426373965  0.6051143309726474  1.0000
  C   C21       1.0  0.9010377882706961  0.906350361398355  0.2538544105234988  1.0000
  H   H9        1.0  0.8333100992421757  0.18930397929156384  0.8964869341339108  1.0000
  H   H10       1.0  0.9089823308023988  0.3071158793657247  0.48846367962169257  1.0000
  H   H11       1.0  0.9128750188192438  0.19222531409100263  0.29017154384766064  1.0000
  H   H12       1.0  0.8881433799745777  0.7755638197990257  0.4880882640585382  1.0000
  H   H13       1.0  0.8519519896769648  0.6597116058970006  0.802644294050356  1.0000
  H   H14       1.0  0.9601352184577293  0.8736928344147962  0.23250643282126338  1.0000
  H   H15       1.0  0.8791238327642928  0.982321051763554  0.1760128194561077  1.0000
  H   H16       1.0  0.8663671926204385  0.8090032066910625  0.2593531041881605  1.0000
  C   C22       1.0  0.8934510526674463  0.5315509124270039  0.2375444605254542  1.0000
  C   C23       1.0  0.8401149566578603  0.4541366369271169  0.17691468902506524  1.0000
  C   C24       1.0  0.8401149092169085  0.4541367319127654  0.04603254969638204  1.0000
  C   C25       1.0  0.8934509931915866  0.5315509862642736  0.9730348970066967  1.0000
  C   C26       1.0  0.9467430686356249  0.6089010990874382  0.03366474255631524  1.0000
  C   C27       1.0  0.9467430591470628  0.6089010772202719  0.16455704136438265  1.0000
  H   H17       1.0  0.9473879798287832  0.6098380434322717  0.530000556463321  1.0000
  H   H18       1.0  0.7983076067069336  0.3934556688763753  0.23057289244457446  1.0000
  H   H19       1.0  0.7983075906291478  0.39345573761933306  0.0020688634125409777  1.0000
  H   H20       1.0  0.9885558776771355  0.669590065961412  0.9800507933307232  1.0000
  H   H21       1.0  0.988555840099319  0.6695900173747189  0.20847516137069677  1.0000
  H   H22       1.0  0.9473882172061168  0.6098375283962856  0.6680715276461968  1.0000
  Zn  Zn1       1.0  0.811107456017627  0.5358867135070069  0.606454208216616  1.0000
  Zn  Zn2       1.0  0.9757874244879992  0.5272148363998519  0.6041246951390649  1.0000
  C   C28       1.0  0.8934817593673972  0.5258030681649419  0.8340138744982688  1.0000
  C   C29       1.0  0.8934149091729537  0.5373002075542592  0.37656512557856026  1.0000
  C   C30       1.0  0.8919612385779849  0.7950719636549297  0.6001903612881805  1.0000
  C   C31       1.0  0.8949353835433749  0.26802958152473244  0.6103887070663343  1.0000
  O   O1        1.0  0.9558980043776444  0.5359324967033994  0.4223376952729172  1.0000
  O   O2        1.0  0.9559869559342797  0.5205879364717707  0.7864728982387952  1.0000
  O   O3        1.0  0.9547582737021094  0.738026019313311  0.5976587682779064  1.0000
  O   O4        1.0  0.9571266303575008  0.3184944271424295  0.6111517321282967  1.0000
  O   O5        1.0  0.8297681939509256  0.7446071257252862  0.5994271720157445  1.0000
  O   O6        1.0  0.830996866404887  0.5271707763841411  0.788241234487308  1.0000
  O   O7        1.0  0.8309079151818142  0.542515286333606  0.42410452591895087  1.0000
  O   O8        1.0  0.8321365412167845  0.3250772064529226  0.6129186566682003  1.0000
