data_image0
_chemical_formula_structural       NC9NC5H8C6BrH5C7NH5Zn2C4O8
_chemical_formula_sum              "N3 C31 H18 Br1 Zn2 O8"
_cell_length_a       17.807436237873137
_cell_length_b       10.302969083221269
_cell_length_c       10.302823150593486
_cell_angle_alpha    85.56069318990711
_cell_angle_beta     89.3921433004221
_cell_angle_gamma    88.39001038669201

_space_group_name_H-M_alt    "P 1"
_space_group_IT_number       1

loop_
  _space_group_symop_operation_xyz
  'x, y, z'

loop_
  _atom_site_type_symbol
  _atom_site_label
  _atom_site_symmetry_multiplicity
  _atom_site_fract_x
  _atom_site_fract_y
  _atom_site_fract_z
  _atom_site_occupancy
  N   N1        1.0  0.7074119341072634  0.3873206190294409  0.5575853135782018  1.0000
  C   C1        1.0  0.6468244175863654  0.35214222353494495  0.5465648607805744  1.0000
  C   C2        1.0  0.5714602061655342  0.3083841735874675  0.5328566140883813  1.0000
  C   C3        1.0  0.5533688723805467  0.2369926400449629  0.42788687030027894  1.0000
  C   C4        1.0  0.4801941119235747  0.19439548548550345  0.41449444389142265  1.0000
  C   C5        1.0  0.4240619668367877  0.22281245582467046  0.5060393197192852  1.0000
  C   C6        1.0  0.3462960595317656  0.17765753058042177  0.4918886872160064  1.0000
  C   C7        1.0  0.2841196758368782  0.25938737057782735  0.5178194466204082  1.0000
  C   C8        1.0  0.2108026105461376  0.21658724280808306  0.50444069693986  1.0000
  C   C9        1.0  0.1475761364187504  0.3010075713126472  0.5307352454418044  1.0000
  N   N2        1.0  0.0967550395147124  0.36887567488793604  0.5518753361769102  1.0000
  C   C10       1.0  0.1990783841592835  0.09179937779902225  0.4651058460041728  1.0000
  C   C11       1.0  0.2603973980398609  0.010055689991147476  0.43916669954339316  1.0000
  C   C12       1.0  0.3335950315382036  0.05246140427114865  0.45234297458375305  1.0000
  C   C13       1.0  0.4428447048736721  0.29469819614936266  0.6112282241713565  1.0000
  C   C14       1.0  0.5160723368048286  0.3371050182399873  0.624465048845402  1.0000
  H   H1        1.0  0.5957638442629919  0.2145150704162293  0.3561967271501427  1.0000
  H   H2        1.0  0.46728162396084455  0.14073092338468784  0.3316001249252494  1.0000
  H   H3        1.0  0.2926171039933226  0.35682086643172317  0.5466873979482514  1.0000
  H   H4        1.0  0.142613372583539  0.05777429412690327  0.45451429768818774  1.0000
  H   H5        1.0  0.251201625848203  0.9134420386796238  0.40909871577709556  1.0000
  H   H6        1.0  0.3802358897977297  0.9867375432448068  0.4333005685086866  1.0000
  H   H7        1.0  0.4011666125671616  0.3166368808235789  0.6842124572481434  1.0000
  H   H8        1.0  0.5295131747565093  0.39198978181724464  0.7063180698919742  1.0000
  C   C15       1.0  0.902087068021604  0.9968504806819743  0.5547359457980732  1.0000
  C   C16       1.0  0.9799755369324404  0.9902467596010625  0.5754735557925486  1.0000
  C   C17       1.0  0.018612409798038687  0.8700331078529955  0.5857603581661996  1.0000
  C   C18       1.0  0.9799755959194296  0.7551643972085533  0.5754733085817052  1.0000
  C   C19       1.0  0.9020870795722357  0.7593354974923646  0.5547358595569287  1.0000
  C   C20       1.0  0.8635189666616866  0.8807607006142778  0.5444672540500228  1.0000
  Br  Br1       1.0  0.1245541350942263  0.8627052656857085  0.6139674291747452  1.0000
  H   H9        1.0  0.8727706008155284  0.3266377239187208  0.546929921623341  1.0000
  H   H10       1.0  0.010981463609083031  0.07810143646967926  0.5837289490974995  1.0000
  H   H11       1.0  0.010981552011073425  0.6630204981448962  0.5837283629828314  1.0000
  H   H12       1.0  0.8034483839621751  0.8849156495776229  0.5284737852159103  1.0000
  H   H13       1.0  0.8727703856636319  0.4336037418900619  0.5469318432286836  1.0000
  C   C21       1.0  0.9020870841032311  0.37809301422354435  0.17348782902691795  1.0000
  C   C22       1.0  0.8233609744260507  0.39123250733966985  0.1728129340873079  1.0000
  C   C23       1.0  0.7841939927750698  0.3977694224468673  0.05537465974422706  1.0000
  C   C24       1.0  0.8233609598176782  0.39123242325755925  0.9375119404530099  1.0000
  C   C25       1.0  0.902087083654655  0.37809300750006014  0.9359839956484239  1.0000
  C   C26       1.0  0.9410388025941268  0.37159188347574834  0.05452485317748401  1.0000
  C   C27       1.0  0.7034882152247037  0.4112391175166423  0.055811888692689715  1.0000
  N   N3        1.0  0.6386271398587855  0.4220645100761944  0.056163243225152204  1.0000
  H   H14       1.0  0.9319068976609363  0.3731163715126551  0.5010656916176373  1.0000
  H   H15       1.0  0.7923123989576546  0.3964145549312281  0.2634054025475292  1.0000
  H   H16       1.0  0.7923124287532447  0.39641445792977903  0.8472558656128313  1.0000
  H   H17       1.0  0.001749542630383516  0.36145920180101343  0.05419596485822398  1.0000
  H   H18       1.0  0.9319068724900872  0.3731161642970733  0.6080829916792005  1.0000
  Zn  Zn1       1.0  0.8197679428606846  0.38199434239967234  0.5559450458553985  1.0000
  Zn  Zn2       1.0  0.9843990125636577  0.3741913687132903  0.5535262771298548  1.0000
  C   C28       1.0  0.9020853910561775  0.3729210347211216  0.791855909640601  1.0000
  C   C29       1.0  0.9020833621343505  0.3832662292815363  0.3176155143576702  1.0000
  C   C30       1.0  0.9020832114334694  0.6152097955696347  0.5495624079391381  1.0000
  C   C31       1.0  0.9020854855799539  0.1409759112897706  0.5599090861013394  1.0000
  O   O1        1.0  0.9645587459777475  0.38203555572672365  0.3650681720520845  1.0000
  O   O2        1.0  0.9645611798136805  0.3682284523858994  0.7425670887225151  1.0000
  O   O3        1.0  0.964558577525848  0.5638797308488346  0.5469133842057707  1.0000
  O   O4        1.0  0.9645612920881508  0.18638428921368355  0.5607217800503748  1.0000
  O   O5        1.0  0.8396056071556871  0.5698014245634646  0.5487495437534564  1.0000
  O   O6        1.0  0.8396082094401203  0.37415170590796754  0.7444031790465717  1.0000
  O   O7        1.0  0.8396057756541923  0.38795876400493423  0.3669027014694559  1.0000
  O   O8        1.0  0.8396083217615208  0.19230748820618437  0.5625564068047777  1.0000
