data_image0
_chemical_formula_structural       NC8NC6H8C7F3H5C9H8Zn2C4O8
_chemical_formula_sum              "N2 C34 H21 F3 Zn2 O8"
_cell_length_a       17.457602349358154
_cell_length_b       9.27228830945605
_cell_length_c       9.275155815604963
_cell_angle_alpha    85.75778382987818
_cell_angle_beta     93.22066324705655
_cell_angle_gamma    91.12935064675003

_space_group_name_H-M_alt    "P 1"
_space_group_IT_number       1

loop_
  _space_group_symop_operation_xyz
  'x, y, z'

loop_
  _atom_site_type_symbol
  _atom_site_label
  _atom_site_symmetry_multiplicity
  _atom_site_fract_x
  _atom_site_fract_y
  _atom_site_fract_z
  _atom_site_occupancy
  N   N1        1.0  0.7088040241952506  0.6006796636337275  0.46613778246972126  1.0000
  C   C1        1.0  0.6479602493179746  0.5495544764842533  0.45464518785233143  1.0000
  C   C2        1.0  0.572268011085537  0.4859611851632182  0.44035895592941166  1.0000
  C   C3        1.0  0.5137731192554118  0.531309667730822  0.5232441866292739  1.0000
  C   C4        1.0  0.439508617062085  0.47007569927768933  0.5096265713253456  1.0000
  C   C5        1.0  0.3774255803894848  0.5179593420714419  0.5974059857963918  1.0000
  C   C6        1.0  0.30256653214586077  0.5379340170967521  0.5353886274250304  1.0000
  C   C7        1.0  0.24407312220794575  0.5830792147681714  0.6183948588306714  1.0000
  C   C8        1.0  0.1677642672593135  0.6037053939931112  0.5539143880858379  1.0000
  N   N2        1.0  0.10642490282554208  0.6202817558776026  0.5020722977531631  1.0000
  C   C9        1.0  0.259947002287137  0.6085248155790479  0.7639813850701433  1.0000
  C   C10       1.0  0.33402044528686897  0.5889860710759234  0.8264265281327081  1.0000
  C   C11       1.0  0.3925028448060456  0.5440453684445288  0.7439272471138438  1.0000
  C   C12       1.0  0.42502646697342766  0.3627266924684214  0.41153741320420134  1.0000
  C   C13       1.0  0.48350943962033366  0.3176917133004815  0.32909443740595146  1.0000
  C   C14       1.0  0.5569905078480843  0.37905588593862305  0.3433218105534501  1.0000
  H   H1        1.0  0.5259127901808727  0.6154978207204109  0.596730422120284  1.0000
  H   H2        1.0  0.2899395764692029  0.5203084772361046  0.4222315110902688  1.0000
  H   H3        1.0  0.2151164898643376  0.6434079887568465  0.8290960665406675  1.0000
  H   H4        1.0  0.3461230822918782  0.6083384964078131  0.9391594247361212  1.0000
  H   H5        1.0  0.4492450927420547  0.5278390173580747  0.7952027488522122  1.0000
  H   H6        1.0  0.368772336838018  0.3122562600431191  0.4000009859626701  1.0000
  H   H7        1.0  0.47187259197189463  0.23473224701161466  0.2542709241818135  1.0000
  H   H8        1.0  0.6018280872082868  0.3432114795094394  0.27878002021863857  1.0000
  C   C15       1.0  0.9098830814006122  0.18678705561786146  0.4865312021283288  1.0000
  C   C16       1.0  0.9459639170073642  0.2695942946167964  0.3759603299597625  1.0000
  C   C17       1.0  0.9744513956395991  0.2043579555739381  0.25967846054505084  1.0000
  C   C18       1.0  0.9665634614838314  0.05468499652354342  0.24975343057138333  1.0000
  C   C19       1.0  0.9332873487660636  0.9703493857128642  0.3624122434059418  1.0000
  C   C20       1.0  0.9053532974609719  0.03416371997445977  0.48169209708289773  1.0000
  C   C21       1.0  0.9993115938951093  0.9836670259416339  0.12612173099911184  1.0000
  F   F1        1.0  0.9982427562236901  0.0771501581184002  0.0025661226598121534  1.0000
  F   F2        1.0  0.9569727785814577  0.8609898994029658  0.09482299898339952  1.0000
  F   F3        1.0  0.07423051951036408  0.9450720978977807  0.1641020384207137  1.0000
  H   H9        1.0  0.7817421145166886  0.2652809762930166  0.7341805835508077  1.0000
  H   H10       1.0  0.9508083088225697  0.3861102381740005  0.3778894078199988  1.0000
  H   H11       1.0  0.0021266761644875842  0.2714624421887122  0.17665857147767938  1.0000
  H   H12       1.0  0.9308251785045992  0.8537612586140981  0.3589490658310037  1.0000
  H   H13       1.0  0.8707650021980454  0.9057796676580054  0.8275951482946426  1.0000
  C   C22       1.0  0.9062319076477087  0.6067591093436322  0.06077418410145485  1.0000
  C   C23       1.0  0.8458353017951762  0.6741032849807604  0.12276326540689708  1.0000
  C   C24       1.0  0.7905264575371905  0.7512897894856168  0.03606237936689216  1.0000
  C   C25       1.0  0.7945874935722614  0.7627548962134401  0.8857887201456722  1.0000
  C   C26       1.0  0.8534442844944857  0.6945594086131635  0.8219561675335214  1.0000
  C   C27       1.0  0.9090044361401983  0.6141916013635627  0.9074490439770369  1.0000
  C   C28       1.0  0.7377097337688174  0.8432357657474705  0.7966158054674097  1.0000
  C   C29       1.0  0.6900848369313166  0.9106276245068827  0.7219192397700009  1.0000
  C   C30       1.0  0.6323005844400578  0.9923962754607234  0.6312761563237541  1.0000
  H   H14       1.0  0.08493876962368296  0.4991298731746123  0.19049099266558112  1.0000
  H   H15       1.0  0.8424096956082069  0.6699338460445214  0.2392661262951199  1.0000
  H   H16       1.0  0.7449602128824083  0.8032874045028275  0.08647392214044225  1.0000
  H   H17       1.0  0.8548256209472946  0.7014138590042824  0.7048992411936337  1.0000
  H   H18       1.0  0.028276085897336323  0.5364950028000068  0.6450824818187457  1.0000
  H   H19       1.0  0.6478694194603071  0.9973103600659461  0.516662512543621  1.0000
  H   H20       1.0  0.5754324351565776  0.9382007889294297  0.6414316322257654  1.0000
  H   H21       1.0  0.6297633003053292  0.10370927320157142  0.6669691772756408  1.0000
  Zn  Zn1       1.0  0.8235488686569684  0.6063326078774465  0.4765160531014272  1.0000
  Zn  Zn2       1.0  0.9916801459999097  0.6146170857105206  0.4917058972827313  1.0000
  C   C31       1.0  0.9085093949161953  0.6070387910311965  0.747442071821262  1.0000
  C   C32       1.0  0.9067214464606609  0.6139128147414075  0.22078017553305385  1.0000
  C   C33       1.0  0.9061867463125568  0.8739408520495779  0.4768617286071355  1.0000
  C   C34       1.0  0.9090440472110886  0.3470090181032728  0.4913606003214366  1.0000
  O   O1        1.0  0.9706907173349721  0.6194512852507732  0.2802441505808757  1.0000
  O   O2        1.0  0.9721478777118328  0.6077869554106794  0.6995064282671337  1.0000
  O   O3        1.0  0.9702714543779558  0.8233137158976385  0.48101080044467337  1.0000
  O   O4        1.0  0.972567082887903  0.40392453130927675  0.49873966507066303  1.0000
  O   O5        1.0  0.8426618743939884  0.8170251594531086  0.46948228012235504  1.0000
  O   O6        1.0  0.8445382882060897  0.6015001317603212  0.6879778211794199  1.0000
  O   O7        1.0  0.8430811224733551  0.6131643961092352  0.2687138105566176  1.0000
  O   O8        1.0  0.8449574884322453  0.3976376327966946  0.4872094331879382  1.0000
