data_image0
_chemical_formula_structural       NC9NC5H8C8H10C6H6Zn2C4O8
_chemical_formula_sum              "N2 C32 H24 Zn2 O8"
_cell_length_a       17.807436237873137
_cell_length_b       9.275653711864159
_cell_length_c       10.681121600428288
_cell_angle_alpha    85.7433101150016
_cell_angle_beta     89.39214167786866
_cell_angle_gamma    87.8440138982238

_space_group_name_H-M_alt    "P 1"
_space_group_IT_number       1

loop_
  _space_group_symop_operation_xyz
  'x, y, z'

loop_
  _atom_site_type_symbol
  _atom_site_label
  _atom_site_symmetry_multiplicity
  _atom_site_fract_x
  _atom_site_fract_y
  _atom_site_fract_z
  _atom_site_occupancy
  N   N1        1.0  0.6997372380353294  0.5410732990829852  0.6130540325936733  1.0000
  C   C1        1.0  0.6393443302451304  0.5019961802215789  0.6023127815718579  1.0000
  C   C2        1.0  0.5642221906538541  0.45338854775555215  0.5889518317452542  1.0000
  C   C3        1.0  0.5465258000953884  0.3740848814344788  0.4874743544456399  1.0000
  C   C4        1.0  0.4735866893346171  0.3267668031466353  0.47442170616200596  1.0000
  C   C5        1.0  0.4172973385603667  0.35833315539832  0.5628140505363992  1.0000
  C   C6        1.0  0.3397812306724634  0.30817383584547997  0.549021970902752  1.0000
  C   C7        1.0  0.2771527132059947  0.39896156588205756  0.5742924809781855  1.0000
  C   C8        1.0  0.2040724204684927  0.3514180194375358  0.5612523839132908  1.0000
  C   C9        1.0  0.1403789286546415  0.4451944172628104  0.5868822968063399  1.0000
  N   N2        1.0  0.0891823818408533  0.5205841532810551  0.6074880277861934  1.0000
  C   C10       1.0  0.1930385271065232  0.21280026368881222  0.5229165178689268  1.0000
  C   C11       1.0  0.2548097513655706  0.12199715112717624  0.49763787404570037  1.0000
  C   C12       1.0  0.3277727942282536  0.16910257232791093  0.5104814218136557  1.0000
  C   C13       1.0  0.4356823993916851  0.4381858000661538  0.664504487388224  1.0000
  C   C14       1.0  0.5086754345576109  0.48529245185920433  0.6774064437729717  1.0000
  H   H1        1.0  0.5890451202587387  0.34911617892656843  0.41825229823355325  1.0000
  H   H2        1.0  0.4609710777587295  0.2671547407079935  0.3942937902224255  1.0000
  H   H3        1.0  0.2851111341785934  0.507193343912629  0.6024457568112409  1.0000
  H   H4        1.0  0.1367617440786892  0.17500427498630255  0.5125926234763714  1.0000
  H   H5        1.0  0.2461484509614286  0.014676078572456897  0.4683296574840612  1.0000
  H   H6        1.0  0.3747772403090266  0.09609471941962244  0.49190585360476646  1.0000
  H   H7        1.0  0.3938829399172986  0.46255589465346403  0.734973097980059  1.0000
  H   H8        1.0  0.5218126459299307  0.5462599471525085  0.7565337960979304  1.0000
  C   C15       1.0  0.8965724710630242  0.10732845753084086  0.6090722375178863  1.0000
  C   C16       1.0  0.8789364789461914  0.19166226118302965  0.4976377926296165  1.0000
  C   C17       1.0  0.8545249731199701  0.1277195712315633  0.39114672006739837  1.0000
  C   C18       1.0  0.8488672622584623  0.9774235104956157  0.3952289619403131  1.0000
  C   C19       1.0  0.8673141937839155  0.8918595771001405  0.5042384384117133  1.0000
  C   C20       1.0  0.8923543734167528  0.9543175196452416  0.6114805348317851  1.0000
  C   C21       1.0  0.8369242544317136  0.21943369966136173  0.2720784048827758  1.0000
  C   C22       1.0  0.9072180998808137  0.2375744148670902  0.190486749640856  1.0000
  H   H9        1.0  0.9647864190331248  0.36828353468803887  0.7816712304951634  1.0000
  H   H10       1.0  0.8825345507316024  0.30829164943431175  0.49421255015790355  1.0000
  H   H11       1.0  0.8308727206578139  0.9261293844990736  0.31334438514239493  1.0000
  H   H12       1.0  0.8638391676418313  0.775571283721085  0.5035236896570168  1.0000
  H   H13       1.0  0.8994255497736605  0.654838285289889  0.8178876187906459  1.0000
  H   H14       1.0  0.7931158955837952  0.16885811331792056  0.21824964999976304  1.0000
  H   H15       1.0  0.8141185687757245  0.3277969261456548  0.2946006741125371  1.0000
  H   H16       1.0  0.951010076979767  0.29146693279921143  0.24156218243190763  1.0000
  H   H17       1.0  0.9297738638972983  0.13048123387827149  0.16439598526846244  1.0000
  H   H18       1.0  0.893045682072264  0.30537908284058446  0.10328571530280817  1.0000
  C   C23       1.0  0.8944634426169674  0.530822985757426  0.24253117037721794  1.0000
  C   C24       1.0  0.8410761740124454  0.45344550427808716  0.18164933900263902  1.0000
  C   C25       1.0  0.8410761266342812  0.45344559921858996  0.05076719998322776  1.0000
  C   C26       1.0  0.8944633831899158  0.5308230595596015  0.9780216070988739  1.0000
  C   C27       1.0  0.9478065888159033  0.608136408857922  0.03890330360984162  1.0000
  C   C28       1.0  0.947806579312886  0.6081363870011491  0.16979560234671043  1.0000
  H   H19       1.0  0.9484521193505605  0.6090729078850248  0.5352421681954487  1.0000
  H   H20       1.0  0.7992287125629826  0.39279337711968654  0.23510996597938139  1.0000
  H   H21       1.0  0.7992286965306374  0.39279344582997155  0.006605937171174192  1.0000
  H   H22       1.0  0.9896595146433539  0.6687965310378161  0.9854869568710809  1.0000
  H   H23       1.0  0.9896594770334202  0.6687964824742161  0.213911324752857  1.0000
  H   H24       1.0  0.9484523563874437  0.6090723930938291  0.6733131377013746  1.0000
  Zn  Zn1       1.0  0.8121227120301702  0.5351567260863208  0.6114550353803057  1.0000
  Zn  Zn2       1.0  0.9767969481927519  0.5264889706120615  0.609097286783679  1.0000
  C   C29       1.0  0.8944903498612715  0.5250778733726376  0.8389818694438711  1.0000
  C   C30       1.0  0.8944310995371763  0.5365695483178294  0.3815705550604842  1.0000
  C   C31       1.0  0.8931478219294922  0.7942187887813072  0.6060350922554318  1.0000
  C   C32       1.0  0.8957735799060388  0.26742690319212437  0.6145173948919953  1.0000
  O   O1        1.0  0.9569132906539205  0.5352024875225423  0.4273386715060987  1.0000
  O   O2        1.0  0.9569920991076185  0.519865220365231  0.7914239127834317  1.0000
  O   O3        1.0  0.9559071483883387  0.7371999576514927  0.6033177583923115  1.0000
  O   O4        1.0  0.9579981851296653  0.3178677635105387  0.6154447328349519  1.0000
  O   O5        1.0  0.8309214188980142  0.7437779361472923  0.605107590127034  1.0000
  O   O6        1.0  0.8320063609849682  0.5264449315375155  0.793213682673084  1.0000
  O   O7        1.0  0.831927552831595  0.5417821484365615  0.42912693562955373  1.0000
  O   O8        1.0  0.8330124473556323  0.3244474141097491  0.6172330908186756  1.0000
