data_image0
_chemical_formula_structural       NC9NC5H8C6FH5C7F3H5Zn2C4O8
_chemical_formula_sum              "N2 C31 H18 F4 Zn2 O8"
_cell_length_a       17.807436237873137
_cell_length_b       9.275642734913903
_cell_length_c       9.272291681409872
_cell_angle_alpha    85.97357626748612
_cell_angle_beta     89.81650948764641
_cell_angle_gamma    88.99238798493903

_space_group_name_H-M_alt    "P 1"
_space_group_IT_number       1

loop_
  _space_group_symop_operation_xyz
  'x, y, z'

loop_
  _atom_site_type_symbol
  _atom_site_label
  _atom_site_symmetry_multiplicity
  _atom_site_fract_x
  _atom_site_fract_y
  _atom_site_fract_z
  _atom_site_occupancy
  N   N1        1.0  0.709797032923633  0.5270805883164378  0.3960050458946105  1.0000
  C   C1        1.0  0.6489491603696025  0.48790663904366927  0.3838282696264643  1.0000
  C   C2        1.0  0.5732610946438707  0.439178560047663  0.3686816819962615  1.0000
  C   C3        1.0  0.5542944957003633  0.3588945360311726  0.25224755777655683  1.0000
  C   C4        1.0  0.4808042717746551  0.31145875251477406  0.2374496669990036  1.0000
  C   C5        1.0  0.4252294954421571  0.3438875324753792  0.3390505227302729  1.0000
  C   C6        1.0  0.3471293754472421  0.2936038760411501  0.32341510578459753  1.0000
  C   C7        1.0  0.2855592491327838  0.38461967459831303  0.3520684387914881  1.0000
  C   C8        1.0  0.211925542626394  0.3369585973895779  0.33728608105584645  1.0000
  C   C9        1.0  0.1493232264093827  0.430965923486637  0.36633876166120394  1.0000
  N   N2        1.0  0.0990039138731022  0.5065413202295694  0.38969632042090363  1.0000
  C   C10       1.0  0.1992767418026122  0.19799505865832634  0.2938226918100333  1.0000
  C   C11       1.0  0.259989378811612  0.10696380103856007  0.2651600696561116  1.0000
  C   C12       1.0  0.3335004030611766  0.15418491851864347  0.2797182777640288  1.0000
  C   C13       1.0  0.4448914264605826  0.42472250569068204  0.45572715390678953  1.0000
  C   C14       1.0  0.5184327101601609  0.4719454280841098  0.47035259309018285  1.0000
  H   H1        1.0  0.5962516218377801  0.3332505029311761  0.17268281068953284  1.0000
  H   H2        1.0  0.46721709994949706  0.2510719070050018  0.14549732381057034  1.0000
  H   H3        1.0  0.2947708329779067  0.49310393552456766  0.3839563403963435  1.0000
  H   H4        1.0  0.1425601937729624  0.16010605558894775  0.2821201915292866  1.0000
  H   H5        1.0  0.2500794005613736  0.9993786778078859  0.23193827828804414  1.0000
  H   H6        1.0  0.3796613347573115  0.08101083809587628  0.2586862787712283  1.0000
  H   H7        1.0  0.4036533350229057  0.44978032932438694  0.53672975018349  1.0000
  H   H8        1.0  0.5325512845524518  0.5336775567878844  0.5611466179321114  1.0000
  C   C15       1.0  0.9020840175232903  0.09339466910102545  0.39350814898416964  1.0000
  C   C16       1.0  0.8870549751401532  0.1763616968516304  0.2635126542845818  1.0000
  C   C17       1.0  0.8791118011312763  0.11036880055985354  0.13384703073977744  1.0000
  C   C18       1.0  0.8861328215538138  0.960691353909992  0.1318840523153797  1.0000
  C   C19       1.0  0.8997968820295089  0.876189234497477  0.2598849404903505  1.0000
  C   C20       1.0  0.9067241056269781  0.9402159015686206  0.39220561253683517  1.0000
  F   F1        1.0  0.8654578923335813  0.1920982904928079  0.009366342903921465  1.0000
  H   H9        1.0  0.9809074034499481  0.17119686811757062  0.7142499407710581  1.0000
  H   H10       1.0  0.8832134326416722  0.29317366669495715  0.261729852676962  1.0000
  H   H11       1.0  0.8802680727000303  0.9096577742825134  0.031152100269939087  1.0000
  H   H12       1.0  0.9031734316607579  0.7598164726581489  0.25586800725523595  1.0000
  H   H13       1.0  0.9568001720470732  0.64206102258181  0.6100311184066316  1.0000
  C   C21       1.0  0.9028030273622625  0.5131875455322199  0.9695274961166982  1.0000
  C   C22       1.0  0.9528139801025981  0.4197774532391958  0.04906775832824728  1.0000
  C   C23       1.0  0.0069766086341325195  0.33907212906264284  0.979505605517295  1.0000
  C   C24       1.0  0.013311321625163908  0.3513120850635194  0.8284923672289803  1.0000
  C   C25       1.0  0.9617777932432002  0.44002433315880074  0.7478135101581067  1.0000
  C   C26       1.0  0.9060050670299284  0.520423070175345  0.816186246382081  1.0000
  C   C27       1.0  0.07048938852832154  0.2609458488399188  0.753106792659167  1.0000
  F   F2        1.0  0.1332383766587113  0.23328163360840648  0.8390441187841038  1.0000
  F   F3        1.0  0.09336288923956682  0.331916330427219  0.624559029625801  1.0000
  F   F4        1.0  0.03882790943085923  0.13118705635137173  0.7238513656500425  1.0000
  H   H14       1.0  0.7986427510180913  0.8101325529661909  0.0508841961303117  1.0000
  H   H15       1.0  0.9510334877053122  0.41126055753809543  0.16615578211933713  1.0000
  H   H16       1.0  0.044429299663811594  0.2678532741658448  0.044212198844448825  1.0000
  H   H17       1.0  0.9639400399900162  0.44375736133313537  0.6307850949407188  1.0000
  H   H18       1.0  0.736568401749369  0.6675309741475399  0.7053901455578395  1.0000
  Zn  Zn1       1.0  0.8221137406912734  0.5211496231221671  0.39419282709102976  1.0000
  Zn  Zn2       1.0  0.9866871683285708  0.5124606333678874  0.39152040861897763  1.0000
  C   C28       1.0  0.9053666717113995  0.5133113628054344  0.6561585065481614  1.0000
  C   C29       1.0  0.9034360449488515  0.5203006192933715  0.1295548386719032  1.0000
  C   C30       1.0  0.9058214248332532  0.7800997785267907  0.38670732307655964  1.0000
  C   C31       1.0  0.9029812264681266  0.2535104748624202  0.3990061025766336  1.0000
  O   O1        1.0  0.9661032150726675  0.5193841150885836  0.1822473174939765  1.0000
  O   O2        1.0  0.9676069176647825  0.5076320335495761  0.6014373106356334  1.0000
  O   O3        1.0  0.9679733003108408  0.723067110505456  0.38385358493615374  1.0000
  O   O4        1.0  0.9657367759165746  0.303949050488453  0.39983093600109787  1.0000
  O   O5        1.0  0.8430640769424158  0.7296612089682324  0.38588230061328965  1.0000
  O   O6        1.0  0.8426977034943741  0.5142278636885784  0.6034659467840209  1.0000
  O   O7        1.0  0.8411939941219725  0.5259798801675941  0.18427422052354725  1.0000
  O   O8        1.0  0.8408275553150598  0.3105448061783447  0.40185794712740774  1.0000
