data_image0
_chemical_formula_structural       NC9NC5H8C7NH5C6ClH5Zn2C4O8
_chemical_formula_sum              "N3 C31 H18 Cl1 Zn2 O8"
_cell_length_a       17.807436237873137
_cell_length_b       10.302819778424748
_cell_length_c       10.302974078461048
_cell_angle_alpha    85.56070265291797
_cell_angle_beta     89.39214410348855
_cell_angle_gamma    88.39001009685678

_space_group_name_H-M_alt    "P 1"
_space_group_IT_number       1

loop_
  _space_group_symop_operation_xyz
  'x, y, z'

loop_
  _atom_site_type_symbol
  _atom_site_label
  _atom_site_symmetry_multiplicity
  _atom_site_fract_x
  _atom_site_fract_y
  _atom_site_fract_z
  _atom_site_occupancy
  N   N1        1.0  0.7074119171583247  0.38734070921219765  0.5576066760190783  1.0000
  C   C1        1.0  0.6468244006794514  0.35216180440088496  0.546586378760971  1.0000
  C   C2        1.0  0.5714601893108943  0.30840312091937694  0.5328783255430618  1.0000
  C   C3        1.0  0.5533688549382342  0.23701055395561577  0.4279101074791911  1.0000
  C   C4        1.0  0.4801940945317595  0.19441278266981343  0.4145178701128358  1.0000
  C   C5        1.0  0.424061950084292  0.22283016423952762  0.5060614096709213  1.0000
  C   C6        1.0  0.3462960428331738  0.17767458523713997  0.49191097688819263  1.0000
  C   C7        1.0  0.2841196590433143  0.2594056085277108  0.5178413701382643  1.0000
  C   C8        1.0  0.2108025938039429  0.2166048610927731  0.5044628092658356  1.0000
  C   C9        1.0  0.1475761195744666  0.3010264118448247  0.5307569867354391  1.0000
  N   N2        1.0  0.0967550225883649  0.3688954980225301  0.5518967791702034  1.0000
  C   C10       1.0  0.19907836756419  0.09181518939135813  0.46512851362058716  1.0000
  C   C11       1.0  0.2603973815397231  0.010070318089836494  0.4391897334346768  1.0000
  C   C12       1.0  0.3335950149865249  0.052476646324852494  0.4523658225668241  1.0000
  C   C13       1.0  0.4428446887087827  0.2947169451405074  0.6112487852711546  1.0000
  C   C14       1.0  0.5160723205888873  0.3371243812020446  0.6244854231501855  1.0000
  H   H1        1.0  0.5957638263208574  0.21453265904550478  0.35622101074410883  1.0000
  H   H2        1.0  0.46728160609478064  0.14074744376215054  0.3316247564618142  1.0000
  H   H3        1.0  0.292617087069877  0.3568405150387337  0.5467089149180713  1.0000
  H   H4        1.0  0.1426133560296433  0.05778961310004416  0.454537114754505  1.0000
  H   H5        1.0  0.2512016094650988  0.9134552679944008  0.40912217393306793  1.0000
  H   H6        1.0  0.38023587333717  0.9867518337373414  0.43332368442278724  1.0000
  H   H7        1.0  0.4011665969146559  0.31665594729063673  0.6842319528855023  1.0000
  H   H8        1.0  0.529513159001762  0.39200993925569927  0.706337254340095  1.0000
  C   C15       1.0  0.9020870525124547  0.9968649173137343  0.5547572845095425  1.0000
  C   C16       1.0  0.8582358109965593  0.9890433777756054  0.669087041535325  1.0000
  C   C17       1.0  0.8364193862532814  0.8680495087554237  0.7259671771981628  1.0000
  C   C18       1.0  0.8582358716300468  0.7537423650924205  0.6690870449007067  1.0000
  C   C19       1.0  0.9020870648957297  0.7593609439093526  0.5547573229149021  1.0000
  C   C20       1.0  0.9237835866392412  0.8814379026424852  0.49818981057985323  1.0000
  C   C21       1.0  0.7914655079001964  0.8611603893714205  0.8431719772124961  1.0000
  N   N3        1.0  0.7553372996442673  0.8556238219086476  0.9373661914435003  1.0000
  H   H9        1.0  0.9186968328916478  0.3271499569920324  0.5114513992288459  1.0000
  H   H10       1.0  0.8409413701891607  0.07681732195007962  0.7141772140140352  1.0000
  H   H11       1.0  0.8409414639523786  0.6606677133836861  0.714177181796835  1.0000
  H   H12       1.0  0.9576001145555697  0.8866201533966103  0.4100228180414853  1.0000
  H   H13       1.0  0.9186969018117489  0.43416687313999913  0.5114514968902129  1.0000
  C   C22       1.0  0.902087064059727  0.3781129717009437  0.1735148165375  1.0000
  C   C23       1.0  0.8890189390685146  0.24388758418882417  0.1829401250946232  1.0000
  C   C24       1.0  0.882534930409104  0.17728860095607368  0.07065991436831265  1.0000
  C   C25       1.0  0.8890189726688043  0.243887655918835  0.9478322256307621  1.0000
  C   C26       1.0  0.9020870621434337  0.3781129047752223  0.9359998356390191  1.0000
  C   C27       1.0  0.9085574368578557  0.4445713335862267  0.04949472887606321  1.0000
  Cl  Cl1       1.0  0.866209740200371  0.009609204527318616  0.08393790660479583  1.0000
  H   H14       1.0  0.9070100343770603  0.4286733379265244  0.4972673982203071  1.0000
  H   H15       1.0  0.8838214508107615  0.19050301265508107  0.2772140199736377  1.0000
  H   H16       1.0  0.8838215033086803  0.1905029916424117  0.8620130531298296  1.0000
  H   H17       1.0  0.91863593338444  0.5480899827629089  0.04129732348372839  1.0000
  H   H18       1.0  0.9070098914215686  0.4286733332100674  0.6042397698354214  1.0000
  Zn  Zn1       1.0  0.8197679259183394  0.38201435546792295  0.555966431431391  1.0000
  Zn  Zn2       1.0  0.9843989956308433  0.37421126880913924  0.5535476968299058  1.0000
  C   C28       1.0  0.9020853760697303  0.37294091586572353  0.791873837853726  1.0000
  C   C29       1.0  0.9020833432456332  0.3832862613235175  0.3176403914193695  1.0000
  C   C30       1.0  0.9020831935653213  0.615233185343868  0.5495839261168585  1.0000
  C   C31       1.0  0.9020854695729437  0.14099243467957456  0.5599303731971566  1.0000
  O   O1        1.0  0.9645587274802252  0.38205556983881417  0.36509235377681226  1.0000
  O   O2        1.0  0.9645611644432729  0.3682482657027728  0.7425857381772927  1.0000
  O   O3        1.0  0.9645585598284412  0.5639023774290826  0.5469349325824111  1.0000
  O   O4        1.0  0.9645612759176266  0.18640147006257313  0.5607430628546561  1.0000
  O   O5        1.0  0.8396055894510518  0.5698241568787132  0.548771066225207  1.0000
  O   O6        1.0  0.8396081940624773  0.3741716049824255  0.7444218025977365  1.0000
  O   O7        1.0  0.8396057571494225  0.3879788638739581  0.36692685731342745  1.0000
  O   O8        1.0  0.83960830558375  0.19232475481187206  0.5625776637268765  1.0000
