data_image0
_chemical_formula_structural       NC8NC6H8C6SCH8C7NH5Zn2C4O8
_chemical_formula_sum              "N3 C32 H21 S1 Zn2 O8"
_cell_length_a       17.457602349358154
_cell_length_b       10.302809429070853
_cell_length_c       10.302823150593486
_cell_angle_alpha    85.5606949210533
_cell_angle_beta     92.87590926728866
_cell_angle_gamma    91.68806441137123

_space_group_name_H-M_alt    "P 1"
_space_group_IT_number       1

loop_
  _space_group_symop_operation_xyz
  'x, y, z'

loop_
  _atom_site_type_symbol
  _atom_site_label
  _atom_site_symmetry_multiplicity
  _atom_site_fract_x
  _atom_site_fract_y
  _atom_site_fract_z
  _atom_site_occupancy
  N   N1        1.0  0.7224249012578714  0.4523867147961711  0.626939520643077  1.0000
  C   C1        1.0  0.6613469710263921  0.4064757059202928  0.6163271528436274  1.0000
  C   C2        1.0  0.585363442784951  0.34936812347303703  0.603134906247015  1.0000
  C   C3        1.0  0.5268348114870333  0.38951740982995897  0.6780089272776428  1.0000
  C   C4        1.0  0.4522893658678187  0.33452743451621214  0.6654309245113679  1.0000
  C   C5        1.0  0.3901698380964147  0.37691916718928886  0.7447253525061353  1.0000
  C   C6        1.0  0.3156231734282492  0.3953819875128406  0.688979452585174  1.0000
  C   C7        1.0  0.2570945392981155  0.4353474049673194  0.7639613932187168  1.0000
  C   C8        1.0  0.18110971927891673  0.45441589609621813  0.7060007319735428  1.0000
  N   N2        1.0  0.1200308404911598  0.469740585236859  0.6594005113330339  1.0000
  C   C9        1.0  0.2726204071172181  0.45709306736200817  0.8951975907514658  1.0000
  C   C10       1.0  0.3463823677508897  0.4390191127279677  0.9513309663445839  1.0000
  C   C11       1.0  0.4048993969496169  0.399233692972208  0.8768066024486736  1.0000
  C   C12       1.0  0.437561197424898  0.23871096579221063  0.5765464336240602  1.0000
  C   C13       1.0  0.49607811055867285  0.19884027247446334  0.5020722895584073  1.0000
  C   C14       1.0  0.5698387905110821  0.2539425874715211  0.5152000684278257  1.0000
  H   H1        1.0  0.5391788469502243  0.46468837388353434  0.7446185890657331  1.0000
  H   H2        1.0  0.3032781735206217  0.380416561314318  0.5869871953180035  1.0000
  H   H3        1.0  0.22775943326492812  0.48796616917511315  0.9540148426235644  1.0000
  H   H4        1.0  0.3582136565427425  0.4555417191347877  0.052950080841299485  1.0000
  H   H5        1.0  0.46138501203794713  0.384246410180092  0.9228984946964187  1.0000
  H   H6        1.0  0.3810765451834209  0.19338944303523853  0.5658979602942407  1.0000
  H   H7        1.0  0.4842478848282988  0.1247854278582683  0.4342646849114171  1.0000
  H   H8        1.0  0.61469980832251  0.2222000551559602  0.45689378015690263  1.0000
  C   C15       1.0  0.9212315544247607  0.07981037711241279  0.64317595728412  1.0000
  C   C16       1.0  0.9654902160449521  0.08940614576737582  0.5325531593845985  1.0000
  C   C17       1.0  0.9873013312228783  0.9771924708385313  0.47734651600858324  1.0000
  C   C18       1.0  0.9654901193067903  0.8542549836245649  0.5325530817146584  1.0000
  C   C19       1.0  0.9212315238450653  0.8423072371468185  0.6431759479720334  1.0000
  C   C20       1.0  0.8992986164401061  0.9557266638058347  0.6979205238157198  1.0000
  S   S1        1.0  0.04398984955195617  0.9909492728949661  0.3361727893999005  1.0000
  C   C21       1.0  0.9608500909385527  0.9956185310172867  0.2222429627352971  1.0000
  H   H9        1.0  0.9045273742213715  0.40350841297888707  0.6848343624320419  1.0000
  H   H10       1.0  0.9830692805555751  0.18378438489992344  0.4886119784864327  1.0000
  H   H11       1.0  0.9830691112518904  0.7684339840225196  0.4886118634948706  1.0000
  H   H12       1.0  0.865147423477104  0.9474184456752708  0.7832344514922089  1.0000
  H   H13       1.0  0.9045261210259873  0.5104925903038181  0.684832832491693  1.0000
  H   H14       1.0  0.9256426428407584  0.9046267062105658  0.2366805423934093  1.0000
  H   H15       1.0  0.9256433613351966  0.08086169923557796  0.23668012911315017  1.0000
  H   H16       1.0  0.9806601605094232  0.004424601704335451  0.12124289541408562  1.0000
  C   C22       1.0  0.9212315466773735  0.46105881798609927  0.26192785167006916  1.0000
  C   C23       1.0  0.8408346707109967  0.46695986282914403  0.2535347042236522  1.0000
  C   C24       1.0  0.8008364670822016  0.4698955816879067  0.13225652650478437  1.0000
  C   C25       1.0  0.8408346557926033  0.4669597774025305  0.018233709157157163  1.0000
  C   C26       1.0  0.9212315462192778  0.46105881122126524  0.024424018247597434  1.0000
  C   C27       1.0  0.9610099187197767  0.45813909117856233  0.14678367494737432  1.0000
  C   C28       1.0  0.7184179097053408  0.4759448085193123  0.12478141769838191  1.0000
  N   N3        1.0  0.6521803189921416  0.4808065691795198  0.11877383795109919  1.0000
  H   H17       1.0  0.9516842117686426  0.4588239489920969  0.5924292278408283  1.0000
  H   H18       1.0  0.809127166287101  0.469287158567677  0.3410831921490243  1.0000
  H   H19       1.0  0.8091271967150342  0.4692870643043494  0.9249336581354624  1.0000
  H   H20       1.0  0.023009093536572767  0.4535884400804926  0.15240682494674096  1.0000
  H   H21       1.0  0.9516841860636178  0.45882373945891364  0.6994465254346549  1.0000
  Zn  Zn1       1.0  0.8371653865918339  0.45739118529305944  0.6363145574530835  1.0000
  Zn  Zn2       1.0  0.005290340907490254  0.46472547014438526  0.6500361036823405  1.0000
  C   C29       1.0  0.9212298180275131  0.455886602693123  0.8802957661686313  1.0000
  C   C30       1.0  0.921227745391005  0.46623177095778723  0.4060551722315917  1.0000
  C   C31       1.0  0.9212275767869368  0.6981789164425678  0.6380020568671003  1.0000
  C   C32       1.0  0.9212299292623561  0.22393789487563587  0.6483489460677261  1.0000
  O   O1        1.0  0.985029013617066  0.47074552008324133  0.45963287291535715  1.0000
  O   O2        1.0  0.9850314999804539  0.4569384266402605  0.8371320278503964  1.0000
  O   O3        1.0  0.985028830061498  0.652592496676875  0.641478073123809  1.0000
  O   O4        1.0  0.9850316261663656  0.2750914568313454  0.6552867256158956  1.0000
  O   O5        1.0  0.8574240439601628  0.6470251961046816  0.6310639308302095  1.0000
  O   O6        1.0  0.8574267138755483  0.451372685899355  0.8267178163328746  1.0000
  O   O7        1.0  0.8574242275632294  0.4651797341023758  0.44921710049605035  1.0000
  O   O8        1.0  0.8574268401093896  0.2695256615643429  0.6448710505333191  1.0000
