data_image0
_chemical_formula_structural       NC9NC5H8C7OH6C8H10Zn2C4O8
_chemical_formula_sum              "N2 C33 H24 O9 Zn2"
_cell_length_a       17.807436237873137
_cell_length_b       9.274078303013075
_cell_length_c       9.275657083861812
_cell_angle_alpha    86.02466005452891
_cell_angle_beta     88.90332225934054
_cell_angle_gamma    87.81002060722456

_space_group_name_H-M_alt    "P 1"
_space_group_IT_number       1

loop_
  _space_group_symop_operation_xyz
  'x, y, z'

loop_
  _atom_site_type_symbol
  _atom_site_label
  _atom_site_symmetry_multiplicity
  _atom_site_fract_x
  _atom_site_fract_y
  _atom_site_fract_z
  _atom_site_occupancy
  N   N1        1.0  0.7065255408680347  0.5328008694705244  0.4031269008399092  1.0000
  C   C1        1.0  0.6462009293006299  0.49364945336182897  0.3907659365522478  1.0000
  C   C2        1.0  0.5711637427754515  0.44494940320047194  0.3753902393083244  1.0000
  C   C3        1.0  0.5540232262028384  0.36500195540378866  0.2585760757968003  1.0000
  C   C4        1.0  0.48116705646480246  0.3175936256254266  0.24355515003546024  1.0000
  C   C5        1.0  0.424405072072397  0.34971322278529526  0.34531104051450057  1.0000
  C   C6        1.0  0.3469766533356948  0.2994585067773625  0.32943919979509784  1.0000
  C   C7        1.0  0.2841878117748633  0.39042080283107294  0.3585204808888365  1.0000
  C   C8        1.0  0.2111904638288278  0.3427870373341402  0.3435140312782752  1.0000
  C   C9        1.0  0.1473338445281024  0.4367408243421045  0.3730087106837434  1.0000
  N   N2        1.0  0.0960061489799539  0.5122731755133967  0.39672160598208484  1.0000
  C   C10       1.0  0.2004000599360895  0.2039042827731563  0.299397255957619  1.0000
  C   C11       1.0  0.2623316556268011  0.11292655078292269  0.2703066129059717  1.0000
  C   C12       1.0  0.3352129180588602  0.16012088704613459  0.28508684184112854  1.0000
  C   C13       1.0  0.44223297444840254  0.4302110766876177  0.46237030342891283  1.0000
  C   C14       1.0  0.5151439229231661  0.47740700518417456  0.4772177737916079  1.0000
  H   H1        1.0  0.5969127530660515  0.3395999444047857  0.17888875212512456  1.0000
  H   H2        1.0  0.4689894431893452  0.2574738282063114  0.15131683211137448  1.0000
  H   H3        1.0  0.2919654348763414  0.49884848217595  0.3909184023379664  1.0000
  H   H4        1.0  0.144188992571613  0.16603683609997955  0.28751661131066264  1.0000
  H   H5        1.0  0.2538569207088615  0.005402613552006441  0.23657898410855727  1.0000
  H   H6        1.0  0.3823371468819382  0.08698345801865748  0.26371084100665465  1.0000
  H   H7        1.0  0.4000569646846074  0.45502207256837424  0.5434927653880404  1.0000
  H   H8        1.0  0.5278479580665726  0.5388763164763262  0.5683040545027984  1.0000
  C   C15       1.0  0.903515324029539  0.09894439795234722  0.39859460268963454  1.0000
  C   C16       1.0  0.8895761270920186  0.18247510218240626  0.26869182565603644  1.0000
  C   C17       1.0  0.869121209489036  0.11780799243767559  0.14382024073845723  1.0000
  C   C18       1.0  0.8624061533899744  0.9675431396628748  0.14877483174073136  1.0000
  C   C19       1.0  0.8772032625196031  0.8828948428511693  0.27598060007070924  1.0000
  C   C20       1.0  0.8990235582847056  0.946118248911947  0.4012663049545331  1.0000
  C   C21       1.0  0.8542488317977154  0.2088205806247294  0.009901278977129335  1.0000
  O   O1        1.0  0.8354531786287078  0.15392803092909735  0.8960687131219651  1.0000
  H   H9        1.0  0.8995890285837737  0.17760179429854484  0.753589066721682  1.0000
  H   H10       1.0  0.8929518051869866  0.2991468324778839  0.26552709094854543  1.0000
  H   H11       1.0  0.8463997286203059  0.9150464960703344  0.05386992886756681  1.0000
  H   H12       1.0  0.8732893955647183  0.7666600170376547  0.27527382160996505  1.0000
  H   H13       1.0  0.899672514177425  0.6484179921646154  0.6396627550329177  1.0000
  H   H14       1.0  0.8594437718823692  0.32485358543348086  0.008301066801897905  1.0000
  C   C22       1.0  0.903195303386678  0.520255947818876  0.9765722148918883  1.0000
  C   C23       1.0  0.9415425517228204  0.6281629170096032  0.041219129548720757  1.0000
  C   C24       1.0  0.9732210539180554  0.7425934256674911  0.9573156809165209  1.0000
  C   C25       1.0  0.9676729206390985  0.7480740743798682  0.8067839505816963  1.0000
  C   C26       1.0  0.9309454596012275  0.6407273843926624  0.7406597740627623  1.0000
  C   C27       1.0  0.8993435622951055  0.524806705138646  0.8232886813738176  1.0000
  C   C28       1.0  0.015012579031998374  0.8560316177984617  0.02818299289271664  1.0000
  C   C29       1.0  0.09778021122376801  0.8105197441396277  0.044540224743951695  1.0000
  H   H15       1.0  0.8706811011880539  0.29191625949536726  0.27422834931789564  1.0000
  H   H16       1.0  0.9454424855760162  0.6252838246740935  0.1578718181554648  1.0000
  H   H17       1.0  0.9925418624735132  0.8349017617761931  0.7402590778067246  1.0000
  H   H18       1.0  0.9289816827695725  0.6464507005127977  0.623734986742928  1.0000
  H   H19       1.0  0.811490623015424  0.3632378498344542  0.5563893059531417  1.0000
  H   H20       1.0  0.010341546896051934  0.9609674125589374  0.9627406129602725  1.0000
  H   H21       1.0  0.9899296510541159  0.8736857470162538  0.13652208688394452  1.0000
  H   H22       1.0  0.10367438490514003  0.7076224734366143  0.1128768163992151  1.0000
  H   H23       1.0  0.1242980589872098  0.7958501017952924  0.9368886004885875  1.0000
  H   H24       1.0  0.12754387031850345  0.8955166026903014  0.09688287063261525  1.0000
  Zn  Zn1       1.0  0.818921212410772  0.5268732162812049  0.4012867967099616  1.0000
  Zn  Zn2       1.0  0.9836104676673936  0.5181891341724949  0.3985735251544207  1.0000
  C   C30       1.0  0.9001004172575243  0.518200128963447  0.6632230213885724  1.0000
  C   C31       1.0  0.902433050928506  0.5268639474615231  0.1366374180873864  1.0000
  C   C32       1.0  0.8998948526557572  0.7859537022242891  0.3950163621791858  1.0000
  C   C33       1.0  0.9026385681724688  0.25910864452432225  0.4048441496191455  1.0000
  O   O2        1.0  0.9646759794910073  0.5257797955751107  0.18932707023267903  1.0000
  O   O3        1.0  0.9628528304423878  0.512692173041563  0.6084736404746491  1.0000
  O   O4        1.0  0.9626859850949151  0.7289066221384355  0.39189488416712615  1.0000
  O   O5        1.0  0.9648427690782126  0.3095653591793508  0.4059057194028306  1.0000
  O   O6        1.0  0.8376888547996189  0.7354969942393295  0.3939546033798802  1.0000
  O   O7        1.0  0.8378556913045618  0.5192842777837965  0.610533288283359  1.0000
  O   O8        1.0  0.8396788485545743  0.5323718407323048  0.19138498456873831  1.0000
  O   O9        1.0  0.8398456377017128  0.31615739460041303  0.40796374179458983  1.0000
