data_image0
_chemical_formula_structural       NC9NC5H8C7NH5C6NH7Zn2C4O8
_chemical_formula_sum              "N4 C31 H20 Zn2 O8"
_cell_length_a       17.807436237873137
_cell_length_b       10.302819778424748
_cell_length_c       9.274774538082514
_cell_angle_alpha    85.06361955087615
_cell_angle_beta     89.72824813723155
_cell_angle_gamma    88.39001009685678

_space_group_name_H-M_alt    "P 1"
_space_group_IT_number       1

loop_
  _space_group_symop_operation_xyz
  'x, y, z'

loop_
  _atom_site_type_symbol
  _atom_site_label
  _atom_site_symmetry_multiplicity
  _atom_site_fract_x
  _atom_site_fract_y
  _atom_site_fract_z
  _atom_site_occupancy
  N   N1        1.0  0.7023111312308407  0.40014474334042704  0.3966159866071006  1.0000
  C   C1        1.0  0.6416846432895815  0.3650636650094854  0.38436567446774683  1.0000
  C   C2        1.0  0.5662719556532931  0.32142666704767264  0.36912761629116475  1.0000
  C   C3        1.0  0.5478094185021458  0.25096589630351684  0.25244351913142427  1.0000
  C   C4        1.0  0.4745872986585746  0.2084870070601097  0.23755652614568845  1.0000
  C   C5        1.0  0.4187788828297623  0.23609176243055296  0.33931756830839865  1.0000
  C   C6        1.0  0.3409629349085952  0.19106179592322237  0.32358775499797776  1.0000
  C   C7        1.0  0.2788782496747295  0.2725626367561984  0.3524123323909234  1.0000
  C   C8        1.0  0.2055138733629248  0.2298806499582864  0.33754054238162623  1.0000
  C   C9        1.0  0.1423803841522931  0.3140687889632803  0.36676950725489665  1.0000
  N   N2        1.0  0.0916340445530765  0.3817502185432342  0.39026878770275397  1.0000
  C   C10       1.0  0.19365054787863234  0.10544014630658305  0.2938160049984404  1.0000
  C   C11       1.0  0.2548778336391573  0.023925531912954323  0.26498210457368265  1.0000
  C   C12       1.0  0.3281220621505001  0.06621489683975224  0.27962882424596813  1.0000
  C   C13       1.0  0.4379335992471963  0.3070448016643661  0.45624528396274466  1.0000
  C   C14       1.0  0.511208040312492  0.34933473693029615  0.4709593104446024  1.0000
  H   H1        1.0  0.58995087322624  0.22912438096197207  0.17275294532707108  1.0000
  H   H2        1.0  0.4613816724064332  0.15555750506914423  0.14541141493456156  1.0000
  H   H3        1.0  0.2874777630089027  0.36974128790163374  0.38450188732459445  1.0000
  H   H4        1.0  0.1371480816100749  0.07150858919179459  0.28204246213811013  1.0000
  H   H5        1.0  0.24557573260291782  0.9275773896377437  0.23155859697343728  1.0000
  H   H6        1.0  0.3746955811224477  0.0006591201057888352  0.25846132480365136  1.0000
  H   H7        1.0  0.3965136003796805  0.3283359368607426  0.537374364536032  1.0000
  H   H8        1.0  0.5249383342169658  0.40349370146567165  0.5619469179264645  1.0000
  C   C15       1.0  0.8969761901821807  0.009694245309819216  0.39344856429702135  1.0000
  C   C16       1.0  0.853529256982217  0.0008578077639889159  0.5205390753403587  1.0000
  C   C17       1.0  0.8319139794508116  0.8793590173841915  0.5837678068417675  1.0000
  C   C18       1.0  0.8535293176276056  0.7655567950509299  0.5205390790813627  1.0000
  C   C19       1.0  0.89697620270127  0.7721902715645157  0.39344860698894024  1.0000
  C   C20       1.0  0.9184726827737103  0.8947693765197953  0.33056739182559114  1.0000
  C   C21       1.0  0.7873745765286699  0.8714294784180774  0.7140542547277251  1.0000
  N   N3        1.0  0.7515794705648909  0.8650567548849428  0.8187618228654265  1.0000
  H   H9        1.0  0.9134328264455875  0.34036370858733167  0.3453091539222859  1.0000
  H   H10       1.0  0.8363942701277891  0.08823148933486791  0.5706619236033819  1.0000
  H   H11       1.0  0.8363943637770762  0.6720818810544642  0.5706618877903042  1.0000
  H   H12       1.0  0.9519774226726295  0.9007342800792792  0.23255976519931854  1.0000
  H   H13       1.0  0.9134328957110522  0.4473806238683647  0.34530926248398797  1.0000
  C   C22       1.0  0.8956280006644176  0.39432656492474916  0.9696542578413205  1.0000
  C   C23       1.0  0.9488587931389899  0.46842644882283957  0.035522946174708636  1.0000
  C   C24       1.0  0.005459835371787181  0.5316724967559707  0.9538352620165429  1.0000
  C   C25       1.0  0.00928850309617868  0.5210959740822008  0.8047954269978228  1.0000
  C   C26       1.0  0.9562987281597997  0.44984471835055984  0.7372202469773872  1.0000
  C   C27       1.0  0.8983243829220383  0.3875579642490343  0.8172429244037347  1.0000
  N   N4        1.0  0.0595530464555869  0.6055510123723948  0.02269513539962653  1.0000
  H   H14       1.0  0.7833373200529895  0.1458379706908277  0.09740523883200103  1.0000
  H   H15       1.0  0.9475065405713933  0.47464780183927724  0.15156512184898396  1.0000
  H   H16       1.0  0.05298875977254491  0.5691922021709903  0.7405522106763773  1.0000
  H   H17       1.0  0.9596486140565464  0.44607508247504724  0.6209925837094263  1.0000
  H   H18       1.0  0.8203854901891651  0.22425355421719395  0.5524317756674115  1.0000
  H   H19       1.0  0.05737155258073945  0.613795649550464  0.1341006239386151  1.0000
  H   H20       1.0  0.10216900377750338  0.6526775146055819  0.962758281075879  1.0000
  Zn  Zn1       1.0  0.8146613395365885  0.3948329499434098  0.39479266844122507  1.0000
  Zn  Zn2       1.0  0.9792838557933792  0.387051334238401  0.39210397020047205  1.0000
  C   C28       1.0  0.8978130372949686  0.3836653752445527  0.6570305461475672  1.0000
  C   C29       1.0  0.8961339561583914  0.398220460952762  0.1298662047802175  1.0000
  C   C30       1.0  0.8969540365069393  0.628108436914554  0.3876977888292812  1.0000
  C   C31       1.0  0.8969929010170103  0.15377584149521373  0.3991990399569414  1.0000
  O   O1        1.0  0.9587771464260538  0.3965685414053839  0.1826144507566052  1.0000
  O   O2        1.0  0.9601145264388611  0.3794102524188965  0.6022412249840465  1.0000
  O   O3        1.0  0.9594200350416331  0.5768011439474992  0.3847531316306523  1.0000
  O   O4        1.0  0.9594715813045351  0.19917766268362502  0.4001024368203494  1.0000
  O   O5        1.0  0.834473557847823  0.582706624155144  0.3867942027312776  1.0000
  O   O6        1.0  0.8351680489968517  0.38531729307104556  0.6042822191361643  1.0000
  O   O7        1.0  0.833830663514229  0.40247555066889107  0.1846537098090557  1.0000
  O   O8        1.0  0.8345250987338475  0.20508466179724572  0.40214180407237987  1.0000
