data_image0
_chemical_formula_structural       NC9NC5H8C7OH6C6BrH5Zn2C4O8
_chemical_formula_sum              "N2 C31 H19 O9 Br1 Zn2"
_cell_length_a       17.807436237873137
_cell_length_b       9.274078303013075
_cell_length_c       10.302972455390005
_cell_angle_alpha    85.7362378815819
_cell_angle_beta     89.39215201277248
_cell_angle_gamma    87.81002060722456

_space_group_name_H-M_alt    "P 1"
_space_group_IT_number       1

loop_
  _space_group_symop_operation_xyz
  'x, y, z'

loop_
  _atom_site_type_symbol
  _atom_site_label
  _atom_site_symmetry_multiplicity
  _atom_site_fract_x
  _atom_site_fract_y
  _atom_site_fract_z
  _atom_site_occupancy
  N   N1        1.0  0.6992612308881524  0.5413834094620344  0.5619838099524783  1.0000
  C   C1        1.0  0.6388803882549959  0.5022984284823351  0.5508525141847642  1.0000
  C   C2        1.0  0.5637732563903942  0.453681016406974  0.5370063910446974  1.0000
  C   C3        1.0  0.5461013423672043  0.37436139697714066  0.4318128985594256  1.0000
  C   C4        1.0  0.47317684117504555  0.327033798533112  0.4182862542408068  1.0000
  C   C5        1.0  0.4168777528832179  0.35860649938677613  0.5099194704422232  1.0000
  C   C6        1.0  0.3393771318087108  0.30843708803316083  0.4956265601712935  1.0000
  C   C7        1.0  0.276720583440487  0.39924308409151044  0.5218148359097448  1.0000
  C   C8        1.0  0.2036549698935556  0.3516899721255191  0.5083012276546679  1.0000
  C   C9        1.0  0.139932524369113  0.4454852372912237  0.5348617768477333  1.0000
  N   N2        1.0  0.0887127007752595  0.5208901413458227  0.556215713719644  1.0000
  C   C10       1.0  0.1926638750809122  0.2130443271937763  0.4685731884027322  1.0000
  C   C11       1.0  0.2544631349906826  0.12222294551559942  0.4423764820337881  1.0000
  C   C12       1.0  0.3274116339267664  0.16933784409150476  0.45568637404245393  1.0000
  C   C13       1.0  0.4352381676875899  0.43847520761317216  0.6153336798458964  1.0000
  C   C14       1.0  0.5082166585532852  0.48559133702724244  0.628704124106017  1.0000
  H   H1        1.0  0.5886283648955879  0.34938767276096905  0.36005286850963714  1.0000
  H   H2        1.0  0.4605796280367215  0.26740974435918585  0.3352238026362613  1.0000
  H   H3        1.0  0.2846455874103848  0.5074966378551968  0.5509898126766779  1.0000
  H   H4        1.0  0.1363987616651109  0.17524073412791563  0.45787443008592477  1.0000
  H   H5        1.0  0.24583497025380524  0.014880280499191212  0.41200407718326804  1.0000
  H   H6        1.0  0.3744386215249321  0.09631530232846774  0.43643685741235316  1.0000
  H   H7        1.0  0.3934311908233485  0.46285020342959027  0.6883860806503792  1.0000
  H   H8        1.0  0.5213350528454234  0.5465710968031887  0.7107291431402778  1.0000
  C   C15       1.0  0.8962303962443331  0.10755129719328593  0.5579023847461515  1.0000
  C   C16       1.0  0.8817002606529424  0.19178017573631  0.440922333792384  1.0000
  C   C17       1.0  0.8606772917120059  0.1277841997040341  0.32847297204734605  1.0000
  C   C18       1.0  0.8539847744639543  0.9774927180283896  0.33293468041984076  1.0000
  C   C19       1.0  0.8693605533281186  0.8921607422227693  0.4474860210505742  1.0000
  C   C20       1.0  0.8917507842977173  0.9547107888455959  0.5603083061145626  1.0000
  C   C21       1.0  0.8451957054048411  0.2195165475548606  0.2078762663551812  1.0000
  O   O1        1.0  0.8258822183236632  0.16523580135776683  0.10536776224143929  1.0000
  H   H9        1.0  0.8939190004604305  0.1843007434425581  0.8775820054522856  1.0000
  H   H10       1.0  0.8850615421036614  0.30846891518687025  0.4380724268404972  1.0000
  H   H11       1.0  0.8375466193123011  0.9255061494848478  0.24747091569221147  1.0000
  H   H12       1.0  0.8654434711785959  0.7759297150544996  0.44684955289924644  1.0000
  H   H13       1.0  0.8934842256842329  0.655729248652693  0.7749890813388967  1.0000
  H   H14       1.0  0.8503833659897769  0.335558152849772  0.20643524326029383  1.0000
  C   C22       1.0  0.8939905602792492  0.5311310448411488  0.17786277700595443  1.0000
  C   C23       1.0  0.9166718919174467  0.38403368473545507  0.18607486360702552  1.0000
  C   C24       1.0  0.9279230980901949  0.311065449941887  0.07321066612019589  1.0000
  C   C25       1.0  0.9166720188723567  0.3840336217707796  0.9509924709699291  1.0000
  C   C26       1.0  0.8939905958130718  0.5311310469176873  0.9403478585650702  1.0000
  C   C27       1.0  0.8827594203137215  0.6039693605432663  0.05443668127274792  1.0000
  Br  Br1       1.0  0.9587734628216072  0.11098762378057403  0.08603491355378723  1.0000
  H   H15       1.0  0.8854538213243351  0.5864973482375708  0.5020733657173551  1.0000
  H   H16       1.0  0.9257008029053215  0.3254769233472081  0.27982741978086345  1.0000
  H   H17       1.0  0.9257010995896592  0.32547695604435045  0.864746512890866  1.0000
  H   H18       1.0  0.8652666688760849  0.7174164873447038  0.047165149060657274  1.0000
  H   H19       1.0  0.8854527680497511  0.5864968621950177  0.609039755834722  1.0000
  Zn  Zn1       1.0  0.811648531642502  0.5354656460800471  0.560326759350505  1.0000
  Zn  Zn2       1.0  0.9763254439987079  0.5267961466965674  0.5578834040037868  1.0000
  C   C28       1.0  0.8940193063967354  0.525384758652993  0.7962055727927781  1.0000
  C   C29       1.0  0.8939564578873641  0.5368787594627773  0.3220046964730925  1.0000
  C   C30       1.0  0.8925936471536408  0.7945798330449294  0.554680107541647  1.0000
  C   C31       1.0  0.8953820701016549  0.26768195500577874  0.5635302268519675  1.0000
  O   O2        1.0  0.9564390761071819  0.5355114222394002  0.36945278290698313  1.0000
  O   O3        1.0  0.956522660044949  0.5201710582680399  0.7469026593736026  1.0000
  O   O4        1.0  0.9553705797268939  0.737549529627106  0.5518691541098562  1.0000
  O   O5        1.0  0.9575911001775931  0.31813296415726633  0.5644861916913821  1.0000
  O   O6        1.0  0.8303828192674605  0.7441288315793926  0.5537239724898826  1.0000
  O   O7        1.0  0.831534890418163  0.5267520932454337  0.7487574134528578  1.0000
  O   O8        1.0  0.831451306796076  0.5420924069484614  0.3713059759594184  1.0000
  O   O9        1.0  0.8326033309179747  0.3247139385494404  0.5663394820501384  1.0000
