data_image0
_chemical_formula_structural       NC8NC6H8C6OCH8C6NCOH7Zn2C4O8
_chemical_formula_sum              "N3 C32 H23 O10 Zn2"
_cell_length_a       17.457602349358154
_cell_length_b       9.273888216677433
_cell_length_c       10.29962270195845
_cell_angle_alpha    85.77969719785527
_cell_angle_beta     92.8939802036364
_cell_angle_gamma    91.10627454168798

_space_group_name_H-M_alt    "P 1"
_space_group_IT_number       1

loop_
  _space_group_symop_operation_xyz
  'x, y, z'

loop_
  _atom_site_type_symbol
  _atom_site_label
  _atom_site_symmetry_multiplicity
  _atom_site_fract_x
  _atom_site_fract_y
  _atom_site_fract_z
  _atom_site_occupancy
  N   N1        1.0  0.7135862563107386  0.6122477214008586  0.6308991895025349  1.0000
  C   C1        1.0  0.6527774855779915  0.5612629726480816  0.6201453517169349  1.0000
  C   C2        1.0  0.5771287598196014  0.49784429221330617  0.6067771365406474  1.0000
  C   C3        1.0  0.5183771785339905  0.5424553683922226  0.6817946694948696  1.0000
  C   C4        1.0  0.4441541442823715  0.48138836428086407  0.6690472609861382  1.0000
  C   C5        1.0  0.3817992593593275  0.5284911799560352  0.7484932884101296  1.0000
  C   C6        1.0  0.3071329807214278  0.548971689287828  0.6927861676667428  1.0000
  C   C7        1.0  0.24838250306623222  0.5933786336085485  0.7679110990480418  1.0000
  C   C8        1.0  0.1722740719987523  0.6145308579089135  0.7099903726255032  1.0000
  N   N2        1.0  0.11109584762645972  0.6315301643152076  0.6634222404205818  1.0000
  C   C9        1.0  0.2638048020182771  0.6175751665152815  0.8992523935966252  1.0000
  C   C10       1.0  0.3376841532401457  0.5975266098675163  0.955348278073487  1.0000
  C   C11       1.0  0.3964220495336628  0.553319712462705  0.880681603613565  1.0000
  C   C12       1.0  0.4299750656109065  0.3749577548391376  0.5798473806146955  1.0000
  C   C13       1.0  0.4887133590198772  0.330656186510377  0.5052306843285537  1.0000
  C   C14       1.0  0.562151068265194  0.391848143226073  0.5185283731886892  1.0000
  H   H1        1.0  0.530289844367143  0.6259522716237795  0.7486508215190673  1.0000
  H   H2        1.0  0.2948570446429032  0.5323151542606999  0.590718058785741  1.0000
  H   H3        1.0  0.21877262449054594  0.651879665397062  0.9581803749888289  1.0000
  H   H4        1.0  0.3494371100959996  0.6159121358808146  0.05704782122733454  1.0000
  H   H5        1.0  0.4530049210025295  0.5366948784100996  0.9267422701570267  1.0000
  H   H6        1.0  0.37375608426100004  0.3246275726349217  0.5690592017188221  1.0000
  H   H7        1.0  0.47730768360389786  0.2483981975566627  0.4371795892506074  1.0000
  H   H8        1.0  0.6071885218245691  0.3565784000007761  0.4601088911993674  1.0000
  C   C15       1.0  0.9145965864868213  0.19853573315818762  0.6460184625425991  1.0000
  C   C16       1.0  0.8966634394002675  0.2808858514200694  0.5285576303575923  1.0000
  C   C17       1.0  0.8722059891771066  0.21493394603823113  0.4156578588211417  1.0000
  C   C18       1.0  0.8655397562372961  0.06363142015561674  0.4197902666053197  1.0000
  C   C19       1.0  0.8842750701059002  0.9801241885156298  0.5348187204206611  1.0000
  C   C20       1.0  0.910092891710766  0.04523138433982887  0.6483147702538428  1.0000
  O   O1        1.0  0.854738440151479  0.3034751583555695  0.3020530518062894  1.0000
  C   C21       1.0  0.8291162677363053  0.25126360739578946  0.18044750628742423  1.0000
  H   H9        1.0  0.920904138977216  0.2756440937032796  0.9661113173619553  1.0000
  H   H10       1.0  0.8999022172561159  0.3979171085490205  0.5249733871526239  1.0000
  H   H11       1.0  0.8465918203045505  0.009244378113127283  0.3342511117429168  1.0000
  H   H12       1.0  0.8802892796489409  0.8634622677423754  0.5340601915490069  1.0000
  H   H13       1.0  0.9175549972147258  0.7467417270290522  0.8632727771989077  1.0000
  H   H14       1.0  0.7740780284867923  0.19047531070461465  0.19091107694562282  1.0000
  H   H15       1.0  0.8731446026380282  0.1807766760341345  0.14510988769225497  1.0000
  H   H16       1.0  0.8197742146079074  0.3444693860236321  0.1078857476891959  1.0000
  C   C22       1.0  0.9122725070328311  0.621739479872321  0.2658034773675044  1.0000
  C   C23       1.0  0.8318429039325886  0.6289624142473149  0.2571644310979442  1.0000
  C   C24       1.0  0.7914510151536535  0.634968763232246  0.1358674885241158  1.0000
  C   C25       1.0  0.8320108588219995  0.6292796387088562  0.02200695263760566  1.0000
  C   C26       1.0  0.9124169870296646  0.6220276351016927  0.028529708767776496  1.0000
  C   C27       1.0  0.9521089776796408  0.6188782560492883  0.1508977998888097  1.0000
  N   N3        1.0  0.7090597762705573  0.6401167767242897  0.13103789164520574  1.0000
  C   C28       1.0  0.663642885251693  0.7166209371847432  0.029496143799263352  1.0000
  O   O2        1.0  0.6940976501805507  0.8014538836152778  0.9451401871200771  1.0000
  H   H17       1.0  0.06393658819438786  0.6065687496333569  0.48944935916444754  1.0000
  H   H18       1.0  0.8001526051757556  0.6311775507696848  0.3447390936997916  1.0000
  H   H19       1.0  0.8008813662697927  0.6274974020815542  0.9286069472032534  1.0000
  H   H20       1.0  0.014112212511764533  0.6133288692491146  0.15668027361378956  1.0000
  H   H21       1.0  0.9432153118145439  0.6170538260132412  0.703726453899395  1.0000
  H   H22       1.0  0.6801734758025872  0.5938793524134738  0.21063074033031515  1.0000
  H   H23       1.0  0.6018331912163812  0.7046289217803132  0.027305594381767717  1.0000
  Zn  Zn1       1.0  0.8282989597016545  0.6178083546260609  0.6402921273306597  1.0000
  Zn  Zn2       1.0  0.9963831948718432  0.6259577150811408  0.654039902902015  1.0000
  C   C29       1.0  0.9124185147928224  0.6162298454241903  0.8843424382188276  1.0000
  C   C30       1.0  0.9122654656038877  0.6275381323352056  0.409989874536955  1.0000
  C   C31       1.0  0.9109392712436061  0.885185738101461  0.6427053006684471  1.0000
  C   C32       1.0  0.9137446610239344  0.35858050482884063  0.6516270719362403  1.0000
  O   O3        1.0  0.976050227159237  0.6325705634188601  0.4635973387106693  1.0000
  O   O4        1.0  0.9762058042413371  0.6173815026423444  0.8411688408119278  1.0000
  O   O5        1.0  0.9750104367430509  0.8345667462106492  0.6460450763511092  1.0000
  O   O6        1.0  0.9772455372284585  0.41538532734591405  0.6587210011350804  1.0000
  O   O7        1.0  0.8474365599861294  0.828380739581877  0.6356110243993265  1.0000
  O   O8        1.0  0.8486319182546755  0.6111972280632558  0.8307347243129728  1.0000
  O   O9        1.0  0.8484763411950448  0.6263862380142118  0.45316166070260344  1.0000
  O   O10       1.0  0.8496716513344212  0.4092009916664969  0.6482854204651542  1.0000
