data_image0
_chemical_formula_structural       NC9NC5H8C6NCOH7C6SCH8Zn2C4O8
_chemical_formula_sum              "N3 C32 H23 O9 S1 Zn2"
_cell_length_a       17.807436237873137
_cell_length_b       10.299619329790078
_cell_length_c       10.302812801239593
_cell_angle_alpha    85.56660586628533
_cell_angle_beta     89.39214003622364
_cell_angle_gamma    88.41592915749165

_space_group_name_H-M_alt    "P 1"
_space_group_IT_number       1

loop_
  _space_group_symop_operation_xyz
  'x, y, z'

loop_
  _atom_site_type_symbol
  _atom_site_label
  _atom_site_symmetry_multiplicity
  _atom_site_fract_x
  _atom_site_fract_y
  _atom_site_fract_z
  _atom_site_occupancy
  N   N1        1.0  0.7077745458960881  0.38774361334311624  0.5577220987111962  1.0000
  C   C1        1.0  0.647177836189141  0.3525544906599827  0.5466981297020661  1.0000
  C   C2        1.0  0.5718021894572721  0.30878309727117936  0.5329855092299718  1.0000
  C   C3        1.0  0.5536922016481052  0.2373697915825801  0.4280085467370187  1.0000
  C   C4        1.0  0.48050630925901144  0.19475964758026576  0.4146118625360724  1.0000
  C   C5        1.0  0.4243815876330458  0.22318528553919825  0.5061596616393473  1.0000
  C   C6        1.0  0.3466038799710908  0.17801659089476018  0.4920045157284887  1.0000
  C   C7        1.0  0.2844488547614408  0.2597713533398853  0.5179434446624287  1.0000
  C   C8        1.0  0.211120604492918  0.21695817423537034  0.50456041697936  1.0000
  C   C9        1.0  0.1479161919733433  0.30140424560373114  0.5308634034546544  1.0000
  N   N2        1.0  0.097112831075638  0.3692930446605449  0.5520102777376561  1.0000
  C   C10       1.0  0.1993637672447898  0.09213225680295234  0.4652130927894442  1.0000
  C   C11       1.0  0.2606614190214103  0.010363642324540567  0.4392657754109248  1.0000
  C   C12       1.0  0.3338701344279136  0.05278228766597293  0.45244628895155525  1.0000
  C   C13       1.0  0.4431831088432442  0.2950929487135807  0.6113558342586103  1.0000
  C   C14       1.0  0.5164218229700561  0.33751270220507945  0.6245968976040412  1.0000
  H   H1        1.0  0.5960813016152994  0.21488536596359076  0.3563160920253752  1.0000
  H   H2        1.0  0.4675797993180199  0.14107871938751826  0.33171211331399286  1.0000
  H   H3        1.0  0.2929717453128081  0.3572345602109397  0.5468211331702717  1.0000
  H   H4        1.0  0.1428898638762412  0.05809679763128539  0.454618143607572  1.0000
  H   H5        1.0  0.2514403987338116  0.9137205299571937  0.4091881349498485  1.0000
  H   H6        1.0  0.3804938169893811  0.9870383850552732  0.43339731508389234  1.0000
  H   H7        1.0  0.4015107475760976  0.31703832509180896  0.684342326500698  1.0000
  H   H8        1.0  0.5298770018233272  0.39241420392008375  0.7064554694423195  1.0000
  C   C15       1.0  0.9023476340835699  0.9971544095033621  0.5548338218253341  1.0000
  C   C16       1.0  0.8661123452463192  0.006963029444533753  0.433857441834272  1.0000
  C   C17       1.0  0.8489749572671729  0.8951238996487071  0.37198572827343845  1.0000
  C   C18       1.0  0.8663360757576646  0.7717939697234061  0.43395410287362624  1.0000
  C   C19       1.0  0.9025468878284882  0.7598719801286152  0.5549097468921542  1.0000
  C   C20       1.0  0.9206140083950958  0.8731698090719295  0.6144165611065566  1.0000
  N   N3        1.0  0.8108527784867783  0.9090089245064928  0.24911593198648574  1.0000
  C   C21       1.0  0.8226651309885801  0.8237707343196666  0.14679061481459832  1.0000
  O   O1        1.0  0.8754070204831584  0.7395469211778007  0.1514747375415717  1.0000
  H   H9        1.0  0.9699846714962932  0.18588792133247334  0.7836840947310675  1.0000
  H   H10       1.0  0.8515540032844103  0.10175510304243507  0.38648744432661486  1.0000
  H   H11       1.0  0.8502716125387643  0.6851618422587527  0.3892811540143235  1.0000
  H   H12       1.0  0.948556220943982  0.8647325030264125  0.7076684850123933  1.0000
  H   H13       1.0  0.9154382905194152  0.42782499663174417  0.6022711867315815  1.0000
  H   H14       1.0  0.7760789732600128  0.9912583607266042  0.22859958627210197  1.0000
  H   H15       1.0  0.7870011877576434  0.8343312974085988  0.06205937472937517  1.0000
  C   C22       1.0  0.9024472971640418  0.3785131843739984  0.17362330946237536  1.0000
  C   C23       1.0  0.8771453356525525  0.509222423040927  0.16281060467088637  1.0000
  C   C24       1.0  0.8643621479364842  0.5740768467480988  0.040457781232522194  1.0000
  C   C25       1.0  0.8771452678892812  0.5092222899251373  0.9276594359616714  1.0000
  C   C26       1.0  0.9024472484325585  0.3785131779314326  0.9361202138059239  1.0000
  C   C27       1.0  0.9149514395617115  0.31378705730594736  0.059644293981882646  1.0000
  S   S1        1.0  0.8321894675754792  0.7411660708887  0.02813555256925615  1.0000
  C   C28       1.0  0.7333584474915534  0.7004754337451267  0.03309289882434019  1.0000
  H   H16       1.0  0.9119544627616704  0.3292398822141409  0.5050128670950704  1.0000
  H   H17       1.0  0.8670943707994581  0.5611405507813929  0.2490824241338634  1.0000
  H   H18       1.0  0.867094220341792  0.5611403708349176  0.8337321133397229  1.0000
  H   H19       1.0  0.9344543386551268  0.21295726419376093  0.06707839254923975  1.0000
  H   H20       1.0  0.9119530637610216  0.32923927427311206  0.6119973020353604  1.0000
  H   H21       1.0  0.7200217327059655  0.6433336646329397  0.9496362625029615  1.0000
  H   H22       1.0  0.7200220548077331  0.643334961846181  0.12587094994669257  1.0000
  H   H23       1.0  0.6986120258677895  0.7917610467216349  0.02667540402324131  1.0000
  Zn  Zn1       1.0  0.8201291627302768  0.38241571253616846  0.5560812986356269  1.0000
  Zn  Zn2       1.0  0.9847581932777396  0.374610359436371  0.5536617499996073  1.0000
  C   C29       1.0  0.9024442318236634  0.3733396445395234  0.7919914949881419  1.0000
  C   C30       1.0  0.9024449223563694  0.3836879807962339  0.3177516548149406  1.0000
  C   C31       1.0  0.9025053802553128  0.6157022795366134  0.54972189178752  1.0000
  C   C32       1.0  0.9023837173406672  0.14132378818107583  0.5600213279026867  1.0000
  O   O2        1.0  0.9649199829902664  0.3824569332596208  0.36520423748239117  1.0000
  O   O3        1.0  0.9649187958628693  0.36864562996771477  0.7427021570650507  1.0000
  O   O4        1.0  0.9649673317902097  0.5643565627521006  0.5470677508953172  1.0000
  O   O5        1.0  0.964871390888623  0.18674601242877142  0.5608385471347652  1.0000
  O   O6        1.0  0.8400159089395856  0.5702800622087658  0.5489045023193131  1.0000
  O   O7        1.0  0.8399673734164895  0.3745706897074452  0.7445388394207673  1.0000
  O   O8        1.0  0.83996856058212  0.3883819477416557  0.3670393589253482  1.0000
  O   O9        1.0  0.8399199684749714  0.19267101762226768  0.5626737659139263  1.0000
