data_image0
_chemical_formula_structural       NC8NC6H8C7F3H5C7OH6Zn2C4O8
_chemical_formula_sum              "N2 C32 H19 F3 O9 Zn2"
_cell_length_a       17.457602349358154
_cell_length_b       9.27228830945605
_cell_length_c       9.274081674992354
_cell_angle_alpha    85.76911069333654
_cell_angle_beta     92.53340075860572
_cell_angle_gamma    91.12935064675003

_space_group_name_H-M_alt    "P 1"
_space_group_IT_number       1

loop_
  _space_group_symop_operation_xyz
  'x, y, z'

loop_
  _atom_site_type_symbol
  _atom_site_label
  _atom_site_symmetry_multiplicity
  _atom_site_fract_x
  _atom_site_fract_y
  _atom_site_fract_z
  _atom_site_occupancy
  N   N1        1.0  0.7185884255243223  0.6006719952826101  0.4668851694783427  1.0000
  C   C1        1.0  0.6578179611157206  0.5495467506773555  0.45539817472241007  1.0000
  C   C2        1.0  0.5822168537717142  0.48595338793410203  0.4411189038837515  1.0000
  C   C3        1.0  0.5231932427697155  0.531302284875985  0.5239637480717594  1.0000
  C   C4        1.0  0.4490156064055069  0.47006824834329874  0.5103527680631332  1.0000
  C   C5        1.0  0.38637263090020063  0.517952329979187  0.598089411290941  1.0000
  C   C6        1.0  0.311909187109662  0.5379266949565191  0.5361022713886348  1.0000
  C   C7        1.0  0.2528862861447145  0.5830723076071453  0.6190680573238301  1.0000
  C   C8        1.0  0.1769887476731714  0.603698164470087  0.554619005219859  1.0000
  N   N2        1.0  0.11598008035922971  0.6202742671765722  0.5028021753730161  1.0000
  C   C9        1.0  0.2678314798109068  0.6085186362595374  0.7645836453283692  1.0000
  C   C10       1.0  0.34150658954850327  0.5889802039430467  0.8269983614802621  1.0000
  C   C11       1.0  0.4005152462931483  0.5440390888668794  0.744539278916089  1.0000
  C   C12       1.0  0.4351591602934643  0.36271875114962904  0.4123114046928009  1.0000
  C   C13       1.0  0.4941680309987188  0.3176833598184077  0.32990859991405963  1.0000
  C   C14       1.0  0.5675583437941089  0.3790476035845105  0.34412904065672034  1.0000
  H   H1        1.0  0.5348641500656998  0.6154908052507597  0.5974141767888035  1.0000
  H   H2        1.0  0.3000040528761598  0.520300589381109  0.4230002917915252  1.0000
  H   H3        1.0  0.22258560532452654  0.6434021349699912  0.8296665991336281  1.0000
  H   H4        1.0  0.3528901111787739  0.6083331928688653  0.9396763280505842  1.0000
  H   H5        1.0  0.45693041133890566  0.5278329941258433  0.7957897962435883  1.0000
  H   H6        1.0  0.3789786202320162  0.31224826104941084  0.40078059867053395  1.0000
  H   H7        1.0  0.48300847738221353  0.2347235194588031  0.25512154506348583  1.0000
  H   H8        1.0  0.6128076307848372  0.343202874486769  0.2796186988412461  1.0000
  C   C15       1.0  0.9195373945117652  0.18677948922107923  0.4872686522751255  1.0000
  C   C16       1.0  0.9563235540884527  0.2695861754348543  0.3767516566754232  1.0000
  C   C17       1.0  0.9855527867482949  0.204349255055424  0.26052644656005786  1.0000
  C   C18       1.0  0.9777281636744194  0.05467624638609103  0.2506062526390538  1.0000
  C   C19       1.0  0.9437334081571668  0.9703411987989683  0.36321017153844837  1.0000
  C   C20       1.0  0.9150384788895636  0.034156129385180645  0.48243190512351486  1.0000
  C   C21       1.0  0.011264934173125019  0.9836576577230589  0.12703479363145487  1.0000
  F   F1        1.0  0.010984249208404462  0.07714017219911029  0.0035393887807477764  1.0000
  F   F2        1.0  0.9691257713130201  0.8609803747103187  0.0957513121809026  1.0000
  F   F3        1.0  0.0859415860259991  0.945062919556973  0.16499659483520612  1.0000
  H   H9        1.0  0.7898166892986481  0.2652746479881498  0.7347973644952126  1.0000
  H   H10       1.0  0.9611556404489935  0.38610212863624005  0.3786797945765712  1.0000
  H   H11       1.0  0.01375764542149871  0.2714533266227108  0.17754700961794034  1.0000
  H   H12       1.0  0.9412933292666744  0.8537530543864817  0.3597486814253297  1.0000
  H   H13       1.0  0.8782436919122406  0.9057738063674982  0.8281664122223902  1.0000
  C   C22       1.0  0.9186020954218095  0.6067494144282204  0.061719087864662514  1.0000
  C   C23       1.0  0.9805442069906851  0.6726140763328963  0.13551532309171077  1.0000
  C   C24       1.0  0.03808744442840695  0.7489085995034532  0.0598493027445921  1.0000
  C   C25       1.0  0.03367093916319841  0.7597289742035636  0.9082697353982532  1.0000
  C   C26       1.0  0.97334001760992  0.6931209049785965  0.8334205962369761  1.0000
  C   C27       1.0  0.9159737631126317  0.6141861725435962  0.9079814010784131  1.0000
  C   C28       1.0  0.1018022494150459  0.8177336307085032  0.140709591522713  1.0000
  O   O1        1.0  0.15421625856010235  0.8875577560314796  0.07575570456822112  1.0000
  H   H14       1.0  0.7374187701741307  0.5040624590819431  0.15720219196434582  1.0000
  H   H15       1.0  0.9831063031930037  0.6673833544939016  0.2528142271415157  1.0000
  H   H16       1.0  0.07727443437284354  0.8185611924605136  0.8473065808323783  1.0000
  H   H17       1.0  0.9725892015691175  0.7005404866073455  0.7162400032808973  1.0000
  H   H18       1.0  0.7952313858636497  0.5391817420747782  0.622345022900364  1.0000
  H   H19       1.0  0.10408639394116603  0.8086714171474771  0.25787118042026136  1.0000
  Zn  Zn1       1.0  0.8332670677132403  0.6063249914111868  0.4772583832121391  1.0000
  Zn  Zn2       1.0  0.0013014500874566348  0.6146095451839755  0.4924408260166604  1.0000
  C   C29       1.0  0.9164993755788291  0.607032529025471  0.7480523909961969  1.0000
  C   C30       1.0  0.918070967047494  0.6139039197558132  0.22164711505805856  1.0000
  C   C31       1.0  0.9159027403286116  0.8739332373114796  0.4776038902846078  1.0000
  C   C32       1.0  0.9186675539241439  0.34700147585045893  0.49209569730415637  1.0000
  O   O2        1.0  0.9816609213248905  0.6194426875478383  0.2810821157938965  1.0000
  O   O3        1.0  0.9804436365396371  0.6077804537567366  0.7001401044795081  1.0000
  O   O4        1.0  0.9799609817508285  0.8233061219023028  0.48175094045269296  1.0000
  O   O5        1.0  0.9821435190556941  0.4039170259471685  0.4994711665432605  1.0000
  O   O6        1.0  0.8524249414031302  0.8170175078223862  0.4702280374969281  1.0000
  O   O7        1.0  0.8529075872236335  0.6014935724705583  0.6886171148006246  1.0000
  O   O8        1.0  0.8541248777072956  0.6131557407618164  0.26955739402285617  1.0000
  O   O9        1.0  0.8546074751542314  0.3976300697906432  0.48794655286106026  1.0000
