data_image0
_chemical_formula_structural       NC8NC6H8C6NH7C6NH7Zn2C4O8
_chemical_formula_sum              "N4 C30 H22 Zn2 O8"
_cell_length_a       17.457602349358154
_cell_length_b       9.274771166103582
_cell_length_c       9.274774538082514
_cell_angle_alpha    84.9550519661537
_cell_angle_beta     93.23827242343725
_cell_angle_gamma    92.29117059398062

_space_group_name_H-M_alt    "P 1"
_space_group_IT_number       1

loop_
  _space_group_symop_operation_xyz
  'x, y, z'

loop_
  _atom_site_type_symbol
  _atom_site_label
  _atom_site_symmetry_multiplicity
  _atom_site_fract_x
  _atom_site_fract_y
  _atom_site_fract_z
  _atom_site_occupancy
  N   N1        1.0  0.7265057161509133  0.6272010368405709  0.4710030935867515  1.0000
  C   C1        1.0  0.6651065046050112  0.5762775694000022  0.45927045991574755  1.0000
  C   C2        1.0  0.5887233716405377  0.5129350340498264  0.44468566239942553  1.0000
  C   C3        1.0  0.5307091991747854  0.556844103454339  0.5278855360118864  1.0000
  C   C4        1.0  0.4557794117727977  0.49584918460648075  0.5139806259068755  1.0000
  C   C5        1.0  0.3942039257216646  0.5422084269635394  0.6020926377282962  1.0000
  C   C6        1.0  0.3195728278236598  0.5632575492829452  0.5400759903286587  1.0000
  C   C7        1.0  0.2615579012908541  0.6069612452862132  0.6233961434810107  1.0000
  C   C8        1.0  0.1854845040661  0.6287045518447363  0.5589157906970224  1.0000
  N   N2        1.0  0.12433437035968549  0.6461790808335983  0.5070737644547083  1.0000
  C   C9        1.0  0.2776852205152437  0.6298811225561132  0.7692978732764622  1.0000
  C   C10       1.0  0.3515353949755035  0.6092604920895794  0.8317448136332897  1.0000
  C   C11       1.0  0.4095414569424512  0.5657524907235953  0.7489332161078757  1.0000
  C   C12       1.0  0.4401431616629228  0.39020618417542274  0.4152839522112395  1.0000
  C   C13       1.0  0.4981487597655357  0.34660293441434353  0.33252832571938296  1.0000
  C   C14       1.0  0.5722964322815367  0.40771747787212065  0.3470444173457601  1.0000
  H   H1        1.0  0.5437545356238185  0.6397539747712597  0.601843399955164  1.0000
  H   H2        1.0  0.3067723465892742  0.5475950253582131  0.4266833092037241  1.0000
  H   H3        1.0  0.2332242660250184  0.6636335273523355  0.8346564853143612  1.0000
  H   H4        1.0  0.363830452491165  0.6266571753325183  0.9447202460539734  1.0000
  H   H5        1.0  0.46609860092661853  0.5486577797178973  0.8002094817026522  1.0000
  H   H6        1.0  0.38334073969848  0.3399382003462261  0.4035102927553593  1.0000
  H   H7        1.0  0.48561986076789715  0.26494488005690453  0.2572366949297591  1.0000
  H   H8        1.0  0.6167538808474147  0.37299395150872416  0.2822552874425579  1.0000
  C   C15       1.0  0.9230694818458616  0.21297451293268432  0.48961197884868857  1.0000
  C   C16       1.0  0.904991796762824  0.2965444137797144  0.3589079339709311  1.0000
  C   C17       1.0  0.8940786868989149  0.2321050846351147  0.2280346317162465  1.0000
  C   C18       1.0  0.9012804938223575  0.0827283471846838  0.2269279894309193  1.0000
  C   C19       1.0  0.9179329984255055  0.9977864654261355  0.35572983960031546  1.0000
  C   C20       1.0  0.9277779301733735  0.060394750578658396  0.48847807550170175  1.0000
  N   N3        1.0  0.8764680953078314  0.31880911390112776  0.09595443895612754  1.0000
  H   H9        1.0  0.010472677554975274  0.2940546934149504  0.8133983954228681  1.0000
  H   H10       1.0  0.9011194676253582  0.4129572223912499  0.3580024371617687  1.0000
  H   H11       1.0  0.8932472790992187  0.03172783339348384  0.12626712920415972  1.0000
  H   H12       1.0  0.921302771666596  0.8818191837848198  0.3519019433286994  1.0000
  H   H13       1.0  0.983543063496351  0.7641179448458069  0.7084320075216028  1.0000
  H   H14       1.0  0.8711789754649926  0.43063111105267793  0.09542800366834792  1.0000
  H   H15       1.0  0.8685147478464301  0.2718089560658803  0.9976743359275702  1.0000
  C   C21       1.0  0.924066555635665  0.6403093128583481  0.0650988487625288  1.0000
  C   C22       1.0  0.9789334079044533  0.7280521094919064  0.13665323865124468  1.0000
  C   C23       1.0  0.03717810222798379  0.8040734656393489  0.06103435933254242  1.0000
  C   C24       1.0  0.04102622370961195  0.7927066421193478  0.9124271288855521  1.0000
  C   C25       1.0  0.9864233152636063  0.7081541482534053  0.8391882534001298  1.0000
  C   C26       1.0  0.9267808376436125  0.6330598737502313  0.9129911706003719  1.0000
  N   N4        1.0  0.0929250994849995  0.8916575636956687  0.13567416581791103  1.0000
  H   H16       1.0  0.8077554181747516  0.35277484706918605  0.1809928905464473  1.0000
  H   H17       1.0  0.9775896343939521  0.7348294514101659  0.2525389251726917  1.0000
  H   H18       1.0  0.08599096789853578  0.8505845649526274  0.8528705781254473  1.0000
  H   H19       1.0  0.9898240876742347  0.7043038591391695  0.7233309404485984  1.0000
  H   H20       1.0  0.8461080259259663  0.4436754256757427  0.6399367056154017  1.0000
  H   H21       1.0  0.09074621967190044  0.9005995705078766  0.24682986625716596  1.0000
  H   H22       1.0  0.13677555063225744  0.9483479643791537  0.08030735797826893  1.0000
  Zn  Zn1       1.0  0.8413104774008175  0.6326737497024135  0.4814206508291248  1.0000
  Zn  Zn2       1.0  0.009529566966277825  0.6406944367748788  0.49666804261917363  1.0000
  C   C27       1.0  0.9262341343848352  0.6286819651665789  0.7527289048356938  1.0000
  C   C28       1.0  0.924607757498543  0.644688128254735  0.22536009437475357  1.0000
  C   C29       1.0  0.9268655560884127  0.9002632548188017  0.4829390789737886  1.0000
  C   C30       1.0  0.9239762690079525  0.37310510165089794  0.4951499943221189  1.0000
  O   O1        1.0  0.9886276226211074  0.649195212788267  0.28493154655181274  1.0000
  O   O2        1.0  0.989888658539325  0.6302613115785098  0.7047294560997843  1.0000
  O   O3        1.0  0.9903976837854791  0.8495665837202384  0.48687218289766676  1.0000
  O   O4        1.0  0.9881185396840044  0.42988994915691037  0.502788706291329  1.0000
  O   O5        1.0  0.8627214472781558  0.8434782345849507  0.47529998194618694  1.0000
  O   O6        1.0  0.8622124314140795  0.6241746966594053  0.693157175852062  1.0000
  O   O7        1.0  0.8609513897111234  0.6431085624307136  0.27335753065553736  1.0000
  O   O8        1.0  0.8604423070600343  0.42380328755355356  0.4912147986468729  1.0000
