data_image0
_chemical_formula_structural       NC8NC6H8C7H8C6NCOH7Zn2C4O8
_chemical_formula_sum              "N3 C32 H23 O9 Zn2"
_cell_length_a       17.457602349358154
_cell_length_b       9.274341958901593
_cell_length_c       10.29962270195845
_cell_angle_alpha    85.54764645947503
_cell_angle_beta     92.8939802036364
_cell_angle_gamma    91.07026823974832

_space_group_name_H-M_alt    "P 1"
_space_group_IT_number       1

loop_
  _space_group_symop_operation_xyz
  'x, y, z'

loop_
  _atom_site_type_symbol
  _atom_site_label
  _atom_site_symmetry_multiplicity
  _atom_site_fract_x
  _atom_site_fract_y
  _atom_site_fract_z
  _atom_site_occupancy
  N   N1        1.0  0.7128754102745404  0.6126436031147278  0.624942610825763  1.0000
  C   C1        1.0  0.6520891189077596  0.5616463352375944  0.614377140288713  1.0000
  C   C2        1.0  0.5764683546822096  0.49821208257060645  0.6012432305200706  1.0000
  C   C3        1.0  0.5176971042066524  0.542834112841168  0.6760959442708985  1.0000
  C   C4        1.0  0.4435009946250075  0.4817521139433836  0.6635741527127859  1.0000
  C   C5        1.0  0.381125341894776  0.5288664955480022  0.7428461550017174  1.0000
  C   C6        1.0  0.3064500333238924  0.5493520337962747  0.687063367371936  1.0000
  C   C7        1.0  0.2476799764812488  0.5937698820847859  0.7620242337313838  1.0000
  C   C8        1.0  0.1715622193191487  0.6149273002388604  0.7040253587175573  1.0000
  N   N2        1.0  0.11037649988923161  0.6319307807645937  0.6573944212100051  1.0000
  C   C9        1.0  0.2630916070916496  0.617972356364417  0.893276132246063  1.0000
  C   C10       1.0  0.336979797796952  0.5979188768646231  0.9494460877254407  1.0000
  C   C11       1.0  0.3957371850764856  0.5537011246128318  0.8749427391979745  1.0000
  C   C12       1.0  0.4293688416063733  0.3752953708427196  0.5747674887747369  1.0000
  C   C13       1.0  0.488126667742124  0.3309829244208691  0.5003144681903817  1.0000
  C   C14       1.0  0.5615373972253972  0.3921899066046606  0.513386078452468  1.0000
  H   H1        1.0  0.5295729559436153  0.6263515184413844  0.7426436102809661  1.0000
  H   H2        1.0  0.2941814411738123  0.5326914088160042  0.585056797397179  1.0000
  H   H3        1.0  0.21804430458236  0.6522852785943161  0.9520773729123573  1.0000
  H   H4        1.0  0.3487246484057843  0.6163089173786718  0.05107770407699952  1.0000
  H   H5        1.0  0.45232738649671894  0.5370722083911466  0.9210648275258855  1.0000
  H   H6        1.0  0.3731720510215993  0.32495283024064325  0.5641652587787349  1.0000
  H   H7        1.0  0.4767572601804064  0.24870473730950549  0.4325672818582762  1.0000
  H   H8        1.0  0.6065904013461636  0.3569115030189176  0.455096903361796  1.0000
  C   C15       1.0  0.9140681476099364  0.19883002935961946  0.641590376029147  1.0000
  C   C16       1.0  0.9231122527536889  0.28256988759646307  0.5234213380171515  1.0000
  C   C17       1.0  0.924525817129764  0.21764088977392682  0.40588997289906836  1.0000
  C   C18       1.0  0.9160874486093271  0.06760060183109395  0.4036326877066012  1.0000
  C   C19       1.0  0.9094324536696488  0.9823684337234463  0.5210358379765536  1.0000
  C   C20       1.0  0.9091911405349349  0.04573356836509768  0.6407585250750911  1.0000
  C   C21       1.0  0.9193041021867328  0.9977186135446557  0.27746898870805903  1.0000
  H   H9        1.0  0.8503037936483953  0.2740047957344285  0.9372626217116362  1.0000
  H   H10       1.0  0.9274587805381408  0.39938769650055495  0.5215440087738008  1.0000
  H   H11       1.0  0.9313929363479495  0.28481712021819705  0.3162905981544659  1.0000
  H   H12       1.0  0.9061893697225689  0.8657065261994522  0.519113132173096  1.0000
  H   H13       1.0  0.8693122717927418  0.7462801571461596  0.8417713636048969  1.0000
  H   H14       1.0  0.9796178790658718  0.971090275052148  0.2611201919669217  1.0000
  H   H15       1.0  0.8969222768517018  0.07142001353349015  0.19459809538292383  1.0000
  H   H16       1.0  0.8839185351399733  0.8968315715266598  0.2797746712253397  1.0000
  C   C22       1.0  0.911557476044906  0.6221376922538424  0.2598118306268331  1.0000
  C   C23       1.0  0.8311246883259465  0.6293624001947724  0.25114609864619375  1.0000
  C   C24       1.0  0.7907301513253322  0.6353702240174095  0.12982696513370562  1.0000
  C   C25       1.0  0.8312925033499088  0.6296797025496561  0.01598744817460762  1.0000
  C   C26       1.0  0.9117018289930238  0.6224259182387091  0.022536997414470017  1.0000
  C   C27       1.0  0.9513952082159755  0.6192757658674406  0.1449167241693199  1.0000
  N   N3        1.0  0.7083366426638785  0.6405195015859202  0.12497834850554312  1.0000
  C   C28       1.0  0.6628860206752047  0.7170424473718291  0.0231539498951836  1.0000
  O   O1        1.0  0.6933033824414413  0.8018962242316952  0.9384845710829786  1.0000
  H   H17       1.0  0.06322824603803223  0.6069632368958362  0.483513761904915  1.0000
  H   H18       1.0  0.7994334129071554  0.6315780806360647  0.33871257724827464  1.0000
  H   H19       1.0  0.8001637965924808  0.6278970283004666  0.9225940273565958  1.0000
  H   H20       1.0  0.013400889793445891  0.6137250164350057  0.15071970054947204  1.0000
  H   H21       1.0  0.9425023467488887  0.6174508878490637  0.6977521186831832  1.0000
  H   H22       1.0  0.6794707284488141  0.5942707238394396  0.20474202506782224  1.0000
  H   H23       1.0  0.6010816139642309  0.7050474873705186  0.021007705941607835  1.0000
  Zn  Zn1       1.0  0.8275856619615187  0.6182056017337105  0.634315004447896  1.0000
  Zn  Zn2       1.0  0.9956663040482752  0.6263569632353674  0.648032671552623  1.0000
  C   C29       1.0  0.911705913023284  0.6166267049344996  0.8783711472650715  1.0000
  C   C30       1.0  0.911547877968455  0.6279377685552874  0.4039768042091043  1.0000
  C   C31       1.0  0.9101080858174223  0.8856486387779854  0.6357403305709415  1.0000
  C   C32       1.0  0.9131456578100396  0.3589140994567268  0.6466076871616044  1.0000
  O   O2        1.0  0.9753304207061617  0.6329714353345586  0.4575656756620552  1.0000
  O   O3        1.0  0.975492694701834  0.6177786449380025  0.8351932949680962  1.0000
  O   O4        1.0  0.974201569419268  0.8350172175731188  0.6392671221840551  1.0000
  O   O5        1.0  0.9766214885563583  0.4157328701966423  0.6534917463819965  1.0000
  O   O6        1.0  0.8466304200957513  0.8288296919923435  0.6288559249305239  1.0000
  O   O7        1.0  0.8479215353849098  0.6115928518322091  0.824782026768196  1.0000
  O   O8        1.0  0.8477592614341165  0.6267855913907259  0.4471528461408232  1.0000
  O   O9        1.0  0.8490503293589979  0.40954701597551724  0.6430790142368659  1.0000
