data_image0
_chemical_formula_structural       NC8NC6H8C6NCH9C7OH6Zn2C4O8
_chemical_formula_sum              "N3 C32 H23 O9 Zn2"
_cell_length_a       17.457602349358154
_cell_length_b       9.273386996610926
_cell_length_c       9.274081674992354
_cell_angle_alpha    85.9730649640205
_cell_angle_beta     92.53340075860572
_cell_angle_gamma    91.0935878010965

_space_group_name_H-M_alt    "P 1"
_space_group_IT_number       1

loop_
  _space_group_symop_operation_xyz
  'x, y, z'

loop_
  _atom_site_type_symbol
  _atom_site_label
  _atom_site_symmetry_multiplicity
  _atom_site_fract_x
  _atom_site_fract_y
  _atom_site_fract_z
  _atom_site_occupancy
  N   N1        1.0  0.7181869095892548  0.6000588155630577  0.4725634812390185  1.0000
  C   C1        1.0  0.6574292695447037  0.5489531558341811  0.4608951219820734  1.0000
  C   C2        1.0  0.5818441140937651  0.48538415420953696  0.4463902565552482  1.0000
  C   C3        1.0  0.5228091276789316  0.5307156790577054  0.5293959739112737  1.0000
  C   C4        1.0  0.4486468513894346  0.4695050998413577  0.5155677689178777  1.0000
  C   C5        1.0  0.3859918645402243  0.5173708382140196  0.6034742787671439  1.0000
  C   C6        1.0  0.3115234103378993  0.5373375514828498  0.5415579970243467  1.0000
  C   C7        1.0  0.25248918495237654  0.5824658699131824  0.6246839349856985  1.0000
  C   C8        1.0  0.1765864726474502  0.6030838254964344  0.5603080521793375  1.0000
  N   N2        1.0  0.11557364734898852  0.6196535782886092  0.5085500253097577  1.0000
  C   C9        1.0  0.2674279956078878  0.6079024506767425  0.7702897926942609  1.0000
  C   C10       1.0  0.3411080064070036  0.5883715030732248  0.8326351971381118  1.0000
  C   C11       1.0  0.4001279362756216  0.5434476038791496  0.7500166879937107  1.0000
  C   C12       1.0  0.4348173330513969  0.36219672571023764  0.41714558804451274  1.0000
  C   C13       1.0  0.49383750052907865  0.31717858637612006  0.33458302224477743  1.0000
  C   C14       1.0  0.5672124205883002  0.3785193229465611  0.3490211498765001  1.0000
  H   H1        1.0  0.5344589169491244  0.6148719487943328  0.6031450576099544  1.0000
  H   H2        1.0  0.2996226974738487  0.5197181980531049  0.42839348961211976  1.0000
  H   H3        1.0  0.22217337087120984  0.6427725863409139  0.8354964941389895  1.0000
  H   H4        1.0  0.3524866734927656  0.6077170783250634  0.9453818175644058  1.0000
  H   H5        1.0  0.4565471664923215  0.5272477173110919  0.801209714930528  1.0000
  H   H6        1.0  0.3786494531140002  0.3117455696653768  0.40543574023332973  1.0000
  H   H7        1.0  0.48269875673368184  0.23425052597630458  0.2595016710995437  1.0000
  H   H8        1.0  0.6124706989463816  0.34268832511981073  0.28438365050008096  1.0000
  C   C15       1.0  0.9192397002447711  0.1863248619667035  0.4914786990247617  1.0000
  C   C16       1.0  0.9331084026797536  0.2693198900236373  0.36241074830312603  1.0000
  C   C17       1.0  0.9397573660464774  0.20398035962065197  0.23268093644125765  1.0000
  C   C18       1.0  0.9326424352618508  0.053299019747026666  0.22869628187910762  1.0000
  C   C19       1.0  0.9201264271655952  0.9694037323274907  0.3574340139511285  1.0000
  C   C20       1.0  0.9145281915432569  0.033376853842433274  0.48964798332619175  1.0000
  N   N3        1.0  0.938651547569655  0.9828674721474258  0.09621769480633557  1.0000
  C   C21       1.0  0.951862369250208  0.060158657203915666  0.9567596849247217  1.0000
  H   H9        1.0  0.9341701629842722  0.45132010045648685  0.7294677331675126  1.0000
  H   H10       1.0  0.9370249047500889  0.38614310225038473  0.3609970820640571  1.0000
  H   H11       1.0  0.9497315357995483  0.2721995220460649  0.1356784226736505  1.0000
  H   H12       1.0  0.9165141953669247  0.8528042312398424  0.35483309139842745  1.0000
  H   H13       1.0  0.9416701362079314  0.9064899086815007  0.8431659071085602  1.0000
  H   H14       1.0  0.9332211626994317  0.8702592879937434  0.09871480497239338  1.0000
  H   H15       1.0  0.9044047273328361  0.13616837495588308  0.9274188609317675  1.0000
  H   H16       1.0  0.007362006216952377  0.12044911356285315  0.9620182068391272  1.0000
  H   H17       1.0  0.9540604923516225  0.9820680442423471  0.8716291466029342  1.0000
  C   C22       1.0  0.9181990550141214  0.6061339065926155  0.06741895899584649  1.0000
  C   C23       1.0  0.9801246449524628  0.6719733372974988  0.14144884614246966  1.0000
  C   C24       1.0  0.037648744511280086  0.7482386338342051  0.06605347717768972  1.0000
  C   C25       1.0  0.03322952504048904  0.7590548635037635  0.9145122946229232  1.0000
  C   C26       1.0  0.9729153115956033  0.6924723102604138  0.8394268663381084  1.0000
  C   C27       1.0  0.9155688572528726  0.6135678158612141  0.9137076537738356  1.0000
  C   C28       1.0  0.10134628528211387  0.8170372997917486  0.14715791965205316  1.0000
  O   O1        1.0  0.15374277959649163  0.8868346771378068  0.08245173063515776  1.0000
  H   H18       1.0  0.7370414879786289  0.5034862881989846  0.1625377857495598  1.0000
  H   H19       1.0  0.9826880532400659  0.6667446192247721  0.25872919444230025  1.0000
  H   H20       1.0  0.07681826265257818  0.8178645445243542  0.8537578446997354  1.0000
  H   H21       1.0  0.972162634411316  0.6998890496222927  0.722272594013456  1.0000
  H   H22       1.0  0.7948452942732243  0.5385921178221345  0.6278052007591626  1.0000
  H   H23       1.0  0.10363270299297289  0.8079785577511753  0.26428736075542947  1.0000
  Zn  Zn1       1.0  0.832864133768716  0.6057096461620377  0.4829567487217996  1.0000
  Zn  Zn2       1.0  0.0008964380280129802  0.6139910263175117  0.4981685806074434  1.0000
  C   C29       1.0  0.916096264154079  0.6064169127353358  0.753753266463655  1.0000
  C   C30       1.0  0.9176661319886188  0.6132856711978218  0.22737236647443804  1.0000
  C   C31       1.0  0.9154326789679762  0.8732153776498495  0.4842515839854449  1.0000
  C   C32       1.0  0.9183296692365207  0.3464854713288372  0.4968741243301249  1.0000
  O   O2        1.0  0.9812546969098349  0.6188223172184337  0.2868270157393844  1.0000
  O   O3        1.0  0.980040337503872  0.6071645509542627  0.7058436331762412  1.0000
  O   O4        1.0  0.9795036198024671  0.822607656295494  0.48821903674339007  1.0000
  O   O5        1.0  0.9817913575515935  0.4033792184195917  0.5044514989180022  1.0000
  O   O6        1.0  0.8519691569039713  0.8163214512354326  0.4766738252126057  1.0000
  O   O7        1.0  0.8525058652024133  0.600880078024147  0.6942983410693457  1.0000
  O   O8        1.0  0.8537202303232153  0.612537778813566  0.2752799913079744  1.0000
  O   O9        1.0  0.8542568906834563  0.39709467064780934  0.4929045825421914  1.0000
