data_image0
_chemical_formula_structural       NC9NC5H8C6NCOH7C6NH7Zn2C4O8
_chemical_formula_sum              "N4 C31 H22 O9 Zn2"
_cell_length_a       17.807436237873137
_cell_length_b       10.299619329790078
_cell_length_c       9.274774538082514
_cell_angle_alpha    85.06936260205663
_cell_angle_beta     89.72824813723155
_cell_angle_gamma    88.41592915749165

_space_group_name_H-M_alt    "P 1"
_space_group_IT_number       1

loop_
  _space_group_symop_operation_xyz
  'x, y, z'

loop_
  _atom_site_type_symbol
  _atom_site_label
  _atom_site_symmetry_multiplicity
  _atom_site_fract_x
  _atom_site_fract_y
  _atom_site_fract_z
  _atom_site_occupancy
  N   N1        1.0  0.7026775384730005  0.4005501721367639  0.39677080173456103  1.0000
  C   C1        1.0  0.6420418700800601  0.36545893565651033  0.38451661065223397  1.0000
  C   C2        1.0  0.5666177629729238  0.32180930207567027  0.369273727497782  1.0000
  C   C3        1.0  0.548136786773377  0.25132812856558084  0.25258183943409795  1.0000
  C   C4        1.0  0.4749035505272109  0.20883693904749312  0.2376901495235011  1.0000
  C   C5        1.0  0.4191023586531605  0.23644968770776997  0.3394542439661574  1.0000
  C   C6        1.0  0.3412746267318599  0.1914066822305709  0.3237194516562165  1.0000
  C   C7        1.0  0.2792112696488623  0.2729311226149198  0.35255304066251303  1.0000
  C   C8        1.0  0.2058357237853761  0.2302367767329807  0.3376765312716963  1.0000
  C   C9        1.0  0.1427242659711284  0.31444929342894223  0.3669148048950317  1.0000
  N   N2        1.0  0.0919956380878438  0.3821503209830761  0.3904215689328512  1.0000
  C   C10       1.0  0.1939398331666767  0.10576023983267846  0.2939382344021959  1.0000
  C   C11       1.0  0.2551457871718972  0.0242220218993765  0.2650953208411342  1.0000
  C   C12       1.0  0.3284010824887609  0.06652363222180346  0.2797467164824241  1.0000
  C   C13       1.0  0.438275642941918  0.30742327224979493  0.4563898049549697  1.0000
  C   C14       1.0  0.5115611509619878  0.3497254530765026  0.4711085074688941  1.0000
  H   H1        1.0  0.5902725257388405  0.22948028874985793  0.17288885059587167  1.0000
  H   H2        1.0  0.46168407302651454  0.15589211068089037  0.14553918585487957  1.0000
  H   H3        1.0  0.2878362138977552  0.3701379130107789  0.38465334071759694  1.0000
  H   H4        1.0  0.137428487267407  0.071818857426309  0.2821609397023763  1.0000
  H   H5        1.0  0.2458184725587999  0.9278459808576008  0.23166115994950753  1.0000
  H   H6        1.0  0.3749574460119772  0.0009488730220768016  0.2585719684852854  1.0000
  H   H7        1.0  0.3968612158027301  0.3287205725511415  0.5375212397061553  1.0000
  H   H8        1.0  0.5253056178560244  0.40390009999322274  0.5621021033509113  1.0000
  C   C15       1.0  0.8972404194953345  0.009986614455574694  0.3935602069996966  1.0000
  C   C16       1.0  0.860577600355996  0.020869431763019364  0.25908344317435406  1.0000
  C   C17       1.0  0.843221557856097  0.909579685506019  0.1903071431015284  1.0000
  C   C18       1.0  0.8608016724672749  0.7856995137501005  0.2591908911221379  1.0000
  C   C19       1.0  0.8974399415592982  0.7727035109119791  0.3936446049398561  1.0000
  C   C20       1.0  0.9157173590967627  0.8854729551978163  0.45979209424066014  1.0000
  N   N3        1.0  0.804665157443943  0.9245557201260054  0.05372566680202895  1.0000
  C   C21       1.0  0.8161158924650023  0.840226117104849  0.9399813349606072  1.0000
  O   O1        1.0  0.8688743356405936  0.755960711775343  0.9451881833200204  1.0000
  H   H9        1.0  0.965686213347253  0.196688073743154  0.6479490728525457  1.0000
  H   H10       1.0  0.8458518529109189  0.11608212239845184  0.20642718111960479  1.0000
  H   H11       1.0  0.844579335130118  0.6994640551559478  0.20953265541052257  1.0000
  H   H12       1.0  0.9439891237714494  0.8762076282521292  0.563450485641283  1.0000
  H   H13       1.0  0.9104987194906097  0.44023598636451505  0.4462913543316416  1.0000
  H   H14       1.0  0.7698188474895469  0.006987329134999554  0.030919795297226438  1.0000
  H   H15       1.0  0.7801525091890534  0.8515390425553209  0.8457944948318912  1.0000
  C   C22       1.0  0.8959928853334882  0.39473030899735817  0.9698084296481264  1.0000
  C   C23       1.0  0.9492430691847251  0.4688516494104842  0.0356853112651192  1.0000
  C   C24       1.0  0.005860662427774166  0.5321160109995486  0.9540046202732095  1.0000
  C   C25       1.0  0.009686562356533646  0.5215364257660844  0.8049636157998923  1.0000
  C   C26       1.0  0.9566781415078391  0.45026453837404845  0.7373805574709533  1.0000
  C   C27       1.0  0.8986874962997343  0.3879597483916879  0.8173963478009338  1.0000
  N   N4        1.0  0.05997320695784114  0.6060159190311527  0.022872662463029547  1.0000
  H   H16       1.0  0.7836371771447651  0.14616976189417596  0.09753193505560631  1.0000
  H   H17       1.0  0.9478924446979482  0.4750748038947181  0.1517281748393886  1.0000
  H   H18       1.0  0.053399405450394566  0.5696465806977635  0.7407257175169701  1.0000
  H   H19       1.0  0.9600270409195163  0.44649381095500584  0.62115247739133  1.0000
  H   H20       1.0  0.8207058680434112  0.22460805159845298  0.552567142364992  1.0000
  H   H21       1.0  0.057793870641907  0.6142629435433486  0.13427906261816513  1.0000
  H   H22       1.0  0.10260149692736276  0.6531560673114121  0.9629410189544383  1.0000
  Zn  Zn1       1.0  0.815026356722771  0.39523684064590814  0.39494689623942847  1.0000
  Zn  Zn2       1.0  0.9796468365898504  0.38745297168022463  0.3922573375791847  1.0000
  C   C28       1.0  0.8981751320116947  0.38406603224111446  0.6571835391380776  1.0000
  C   C29       1.0  0.8964998598304698  0.39862533254992716  0.13002080713823094  1.0000
  C   C30       1.0  0.897380100115823  0.628579875347633  0.38787781008521116  1.0000
  C   C31       1.0  0.8972948353892699  0.15410993120478467  0.3993266138772886  1.0000
  O   O2        1.0  0.9591426178033365  0.39697293466932115  0.18276887046054902  1.0000
  O   O3        1.0  0.9604755076222709  0.3798096772933268  0.6023937474822127  1.0000
  O   O4        1.0  0.9598326719217386  0.5772577257351277  0.38492747979804065  1.0000
  O   O5        1.0  0.9597853969884731  0.19952489903807247  0.4002350308564866  1.0000
  O   O6        1.0  0.8348877401472339  0.5831649159457872  0.38696920387234957  1.0000
  O   O7        1.0  0.8355305760079232  0.38571842840033654  0.6044353947805541  1.0000
  O   O8        1.0  0.8341976807109592  0.4028816543785998  0.1848087826557523  1.0000
  O   O9        1.0  0.8348404602345769  0.20543360859452564  0.40227505125014784  1.0000
