data_image0
_chemical_formula_structural       NC8NC6H8C7H8C6OCH8Zn2C4O8
_chemical_formula_sum              "N2 C32 H24 O9 Zn2"
_cell_length_a       17.457602349358154
_cell_length_b       9.274341958901593
_cell_length_c       9.273891588657152
_cell_angle_alpha    86.04057496033718
_cell_angle_beta     92.54290593679647
_cell_angle_gamma    91.07026823974832

_space_group_name_H-M_alt    "P 1"
_space_group_IT_number       1

loop_
  _space_group_symop_operation_xyz
  'x, y, z'

loop_
  _atom_site_type_symbol
  _atom_site_label
  _atom_site_symmetry_multiplicity
  _atom_site_fract_x
  _atom_site_fract_y
  _atom_site_fract_z
  _atom_site_occupancy
  N   N1        1.0  0.7177441929060795  0.5996164922912661  0.4742457041760202  1.0000
  C   C1        1.0  0.6569953115993076  0.5485191285514646  0.4625223301654371  1.0000
  C   C2        1.0  0.5814210517249716  0.48496044697012786  0.4479490335101568  1.0000
  C   C3        1.0  0.5223847638804271  0.5302916218954119  0.5310050939033839  1.0000
  C   C4        1.0  0.4482329912709943  0.46909099320979397  0.5171109994374965  1.0000
  C   C5        1.0  0.385576653421036  0.5169563872209824  0.6050706722359822  1.0000
  C   C6        1.0  0.311098859710033  0.5369134467583181  0.5431744717360982  1.0000
  C   C7        1.0  0.2520633825532633  0.5820414643249814  0.6263505375258311  1.0000
  C   C8        1.0  0.1761509869400989  0.6026494088509808  0.5619953815868881  1.0000
  N   N2        1.0  0.1151303776360693  0.6192111140766468  0.5102540115316545  1.0000
  C   C9        1.0  0.2670102784050454  0.6074874016347394  0.7719867484726965  1.0000
  C   C10       1.0  0.34069958337233774  0.587966068822596  0.8343125477765119  1.0000
  C   C11       1.0  0.39972077099370273  0.5430424817557433  0.7516441406511065  1.0000
  C   C12       1.0  0.4344152835594074  0.361792907586199  0.418571731136379  1.0000
  C   C13       1.0  0.49343673183656156  0.3167751031495267  0.335959167553219  1.0000
  C   C14       1.0  0.5668011775577814  0.3781059240304272  0.35046333710114697  1.0000
  H   H1        1.0  0.5340249846371923  0.614439491232619  0.6048459299959743  1.0000
  H   H2        1.0  0.299191450896813  0.5192864251009026  0.4299886777710049  1.0000
  H   H3        1.0  0.2217547733425221  0.6423573989981908  0.837232203864384  1.0000
  H   H4        1.0  0.3520845782744893  0.6073189537530326  0.9470822957599374  1.0000
  H   H5        1.0  0.4561476640136109  0.5268505200646747  0.8028208951289275  1.0000
  H   H6        1.0  0.3782560331919846  0.3113499228672292  0.40680756908098425  1.0000
  H   H7        1.0  0.482307202498652  0.23385508820517664  0.2607873518966577  1.0000
  H   H8        1.0  0.6120605711176522  0.3422752965522906  0.28578606617790436  1.0000
  C   C15       1.0  0.9188779840835083  0.18596063724955503  0.4927179508436199  1.0000
  C   C16       1.0  0.9283405003891424  0.26858097773666345  0.3615983926348798  1.0000
  C   C17       1.0  0.9301702180644567  0.20253850339258017  0.23118639191783208  1.0000
  C   C18       1.0  0.9217398421056583  0.05247683023005112  0.22868172367167694  1.0000
  C   C19       1.0  0.9146691478479572  0.9683569239535321  0.35895145806815876  1.0000
  C   C20       1.0  0.9140039224139196  0.03285629540973001  0.49179493470143676  1.0000
  C   C21       1.0  0.9254032142209597  0.9813995838389755  0.08869134418673896  1.0000
  H   H9        1.0  0.8540667182579675  0.2639365631557784  0.8207938570259021  1.0000
  H   H10       1.0  0.9326936753928928  0.3853810010731873  0.35951532091709604  1.0000
  H   H11       1.0  0.9373545894082536  0.26886588127716804  0.13176753711511324  1.0000
  H   H12       1.0  0.9114328717888209  0.8516768009704746  0.35681803682892377  1.0000
  H   H13       1.0  0.8734133104203864  0.7353072530884701  0.7148374086499627  1.0000
  H   H14       1.0  0.985774878675008  0.9546163590205197  0.07055083088472824  1.0000
  H   H15       1.0  0.9033148169051943  0.05431587600621257  0.9967383664528224  1.0000
  H   H16       1.0  0.8900094832480382  0.8805343855504946  0.09124971377425073  1.0000
  C   C22       1.0  0.9177191082803009  0.605651380980889  0.0690990820698445  1.0000
  C   C23       1.0  0.9801636252620977  0.6696544109933933  0.14329644059710023  1.0000
  C   C24       1.0  0.03819672998520374  0.7442106822414534  0.06870450163717612  1.0000
  C   C25       1.0  0.033992233119184645  0.7551355581798174  0.9168765811152606  1.0000
  C   C26       1.0  0.9731636932691442  0.6903388330868239  0.8414839493930972  1.0000
  C   C27       1.0  0.9151627994128076  0.6131655150872668  0.9154137465298993  1.0000
  O   O1        1.0  0.09855739264296348  0.8063350270385585  0.14934695300503353  1.0000
  C   C28       1.0  0.1612639197048451  0.8853380879110542  0.08790946502805697  1.0000
  H   H17       1.0  0.7358415453314554  0.5080914577992877  0.16368620996907435  1.0000
  H   H18       1.0  0.9831106769285748  0.6647709892626354  0.26050029092654214  1.0000
  H   H19       1.0  0.07784649198257809  0.8123775218452038  0.8558969073913807  1.0000
  H   H20       1.0  0.9725022124051764  0.6977401831538192  0.7243386100707938  1.0000
  H   H21       1.0  0.7939107576140924  0.5418236192728536  0.6290212418781436  1.0000
  H   H22       1.0  0.1401193425351066  0.9819044147659277  0.021542447448040347  1.0000
  H   H23       1.0  0.19364777459797322  0.8153484275159091  0.020471872681542047  1.0000
  H   H24       1.0  0.20031687441695345  0.9217410081501913  0.1762721195733281  1.0000
  Zn  Zn1       1.0  0.8324212589619397  0.6052672837209037  0.4846452481832053  1.0000
  Zn  Zn2       1.0  0.0004533297382396384  0.6135486045762717  0.4998662779951246  1.0000
  C   C29       1.0  0.9156773596845089  0.6060005423594634  0.7554482788473693  1.0000
  C   C30       1.0  0.9171990530222226  0.6128172570682222  0.22906355299464987  1.0000
  C   C31       1.0  0.9149386360444308  0.8727238241153008  0.48622678032310573  1.0000
  C   C32       1.0  0.917937729063417  0.3460922406850324  0.49828512503874856  1.0000
  O   O2        1.0  0.9807918490856246  0.61835861768836  0.28852539907570707  1.0000
  O   O3        1.0  0.979617024856494  0.6067434211329257  0.7075384285784105  1.0000
  O   O4        1.0  0.9790196320352967  0.8221258152651163  0.49014008423067246  1.0000
  O   O5        1.0  0.9813891848358396  0.402976230086427  0.5059236301738164  1.0000
  O   O6        1.0  0.8514853465232547  0.8158396553862426  0.4785878908027419  1.0000
  O   O7        1.0  0.8520827296022504  0.6004589930568975  0.6959861564288727  1.0000
  O   O8        1.0  0.853257559404563  0.6120741239825411  0.27697139449467434  1.0000
  O   O9        1.0  0.8538548948846751  0.3966917270258443  0.4943697336406405  1.0000
