data_image0
_chemical_formula_structural       NC8NC6H8C6NCH9C7NH5Zn2C4O8
_chemical_formula_sum              "N4 C32 H22 Zn2 O8"
_cell_length_a       17.457602349358154
_cell_length_b       9.273386996610926
_cell_length_c       10.302823150593486
_cell_angle_alpha    85.4662123936278
_cell_angle_beta     92.87590926728866
_cell_angle_gamma    91.0935878010965

_space_group_name_H-M_alt    "P 1"
_space_group_IT_number       1

loop_
  _space_group_symop_operation_xyz
  'x, y, z'

loop_
  _atom_site_type_symbol
  _atom_site_label
  _atom_site_symmetry_multiplicity
  _atom_site_fract_x
  _atom_site_fract_y
  _atom_site_fract_z
  _atom_site_occupancy
  N   N1        1.0  0.7134397863902929  0.6134761066549317  0.623797741116455  1.0000
  C   C1        1.0  0.6526458822272385  0.5624729439992835  0.6132846872712459  1.0000
  C   C2        1.0  0.5770156470742505  0.49903135585421077  0.600215974876317  1.0000
  C   C3        1.0  0.5182386343045848  0.5436337427916536  0.675003145617969  1.0000
  C   C4        1.0  0.4440333813074355  0.48254463314173024  0.6625440962797655  1.0000
  C   C5        1.0  0.3816515992867857  0.5296381841160738  0.7417468231618374  1.0000
  C   C6        1.0  0.3069907153410019  0.5501487817069464  0.6859609847656027  1.0000
  C   C7        1.0  0.24821483723452153  0.5945469061860327  0.7608564728524154  1.0000
  C   C8        1.0  0.17211205098677002  0.6157303516919754  0.7028545629546463  1.0000
  N   N2        1.0  0.1109383668067331  0.6327547567753062  0.6562211921936472  1.0000
  C   C9        1.0  0.2636061766442844  0.6187044575735356  0.8920456305188471  1.0000
  C   C10       1.0  0.3374799508582123  0.5986258561530577  0.9482181033992483  1.0000
  C   C11       1.0  0.39624311048688526  0.5544276935595889  0.8737798026819483  1.0000
  C   C12       1.0  0.4298979764645396  0.3761008180508423  0.5738668740328847  1.0000
  C   C13       1.0  0.48866154756871605  0.3318079239004168  0.4994789776082367  1.0000
  C   C14       1.0  0.5620813399154523  0.3930218332286928  0.5124875600381913  1.0000
  H   H1        1.0  0.5301176285085525  0.62714218663726  0.7414501987884958  1.0000
  H   H2        1.0  0.2947382982641495  0.5335234867002978  0.5840011004671177  1.0000
  H   H3        1.0  0.2185542079534412  0.6530018052470583  0.950796098194828  1.0000
  H   H4        1.0  0.3492090234049256  0.6169810437800727  0.0498014764601562  1.0000
  H   H5        1.0  0.45282144362066995  0.5377781177665786  0.9199041151782104  1.0000
  H   H6        1.0  0.37369370346627406  0.3257525235225116  0.5633164394904366  1.0000
  H   H7        1.0  0.4772894582827191  0.24953939228069322  0.43183156720723637  1.0000
  H   H8        1.0  0.6071387312520149  0.35775862341403486  0.45424993670143254  1.0000
  C   C15       1.0  0.914551363691317  0.19957599821025496  0.6408401288846415  1.0000
  C   C16       1.0  0.9280189355682779  0.283704783542331  0.5245514300412564  1.0000
  C   C17       1.0  0.9342647113773375  0.21950482432784701  0.4076664021294818  1.0000
  C   C18       1.0  0.9271373966763387  0.06885848641306236  0.40407627544208924  1.0000
  C   C19       1.0  0.9150214928508628  0.9838323424214186  0.5200674511832422  1.0000
  C   C20       1.0  0.9098341653045972  0.04664407143871663  0.6391906756675683  1.0000
  N   N3        1.0  0.932734778502166  0.9995906557629799  0.28471463353821447  1.0000
  C   C21       1.0  0.9455121783377789  0.07810686633816855  0.15906461413566486  1.0000
  H   H9        1.0  0.9302214730552121  0.4624806960402159  0.8552654371406232  1.0000
  H   H10       1.0  0.9319310441023081  0.40054041368052906  0.5232777334603387  1.0000
  H   H11       1.0  0.9439374068119616  0.28857607516929407  0.32026828317351264  1.0000
  H   H12       1.0  0.9114011776394698  0.8672556883290913  0.5177240506895107  1.0000
  H   H13       1.0  0.9380748090750107  0.9166517580144726  0.9577061486770542  1.0000
  H   H14       1.0  0.9273121544059284  0.886960536521603  0.2869645002979788  1.0000
  H   H15       1.0  0.8979633480112373  0.15437431943399682  0.1326288783386953  1.0000
  H   H16       1.0  0.0010281582759434915  0.1383511308466614  0.16380248025848365  1.0000
  H   H17       1.0  0.9474457240584356  0.0007640561163158033  0.08236300480564118  1.0000
  C   C22       1.0  0.9121927822944756  0.6231100637469718  0.25876731278963505  1.0000
  C   C23       1.0  0.8317593998211107  0.6296656145252564  0.2503614002981478  1.0000
  C   C24       1.0  0.7917430345202924  0.632926944435682  0.1290768720795734  1.0000
  C   C25       1.0  0.8317593854312045  0.6296655196236722  0.015060405416446265  1.0000
  C   C26       1.0  0.9121927818782304  0.6231100562318264  0.021263479381796957  1.0000
  C   C27       1.0  0.9519892170749091  0.6198664996232237  0.1436294519728989  1.0000
  C   C28       1.0  0.7092870539162797  0.639647112595289  0.12158867768321246  1.0000
  N   N4        1.0  0.6430193861736326  0.6450481084744206  0.11557058105364892  1.0000
  H   H18       1.0  0.9426592732865331  0.6206273174600554  0.5892735233929727  1.0000
  H   H19       1.0  0.8000374977031789  0.6322510389366671  0.33790485385489855  1.0000
  H   H20       1.0  0.8000375287142674  0.6322509342182576  0.9217553200452451  1.0000
  H   H21       1.0  0.014016544258028674  0.6148111195776358  0.14926244586735726  1.0000
  H   H22       1.0  0.9426592488777745  0.6206270846867996  0.6962908214400572  1.0000
  Zn  Zn1       1.0  0.8281493118278257  0.6190356408278412  0.6331619523365628  1.0000
  Zn  Zn2       1.0  0.9962288929717303  0.6271833973767404  0.6468676331590701  1.0000
  C   C29       1.0  0.9122230512855012  0.6173641796042189  0.8771464157409343  1.0000
  C   C30       1.0  0.9121569788036104  0.628856767387014  0.40288344330268555  1.0000
  C   C31       1.0  0.9107218812483502  0.886529998237952  0.6343285836124448  1.0000
  C   C32       1.0  0.913658101136826  0.3596892131366807  0.6457013433453918  1.0000
  O   O1        1.0  0.975930322955482  0.6338711525305583  0.4564513799171117  1.0000
  O   O2        1.0  0.9760182261843018  0.6185326650976657  0.8339804021340942  1.0000
  O   O3        1.0  0.9748051525376894  0.8358874260286553  0.6379032116774639  1.0000
  O   O4        1.0  0.9771433391904651  0.4165163991368035  0.6525284683330161  1.0000
  O   O5        1.0  0.8472348082517701  0.8297026362889188  0.627501112478708  1.0000
  O   O6        1.0  0.8484478722449968  0.6123496081956699  0.8235782303372146  1.0000
  O   O7        1.0  0.8483599693471211  0.6276880453708771  0.4460476473163093  1.0000
  O   O8        1.0  0.8495729856364126  0.4103332816610279  0.6421248330890319  1.0000
