data_image0
_chemical_formula_structural       NC8NC6H8C6NCOH7C6NCH9Zn2C4O8
_chemical_formula_sum              "N4 C32 H24 O9 Zn2"
_cell_length_a       17.457602349358154
_cell_length_b       10.299619329790078
_cell_length_c       9.273390368590327
_cell_angle_alpha    86.17370271239355
_cell_angle_beta     92.8511133753594
_cell_angle_gamma    91.71362633690529

_space_group_name_H-M_alt    "P 1"
_space_group_IT_number       1

loop_
  _space_group_symop_operation_xyz
  'x, y, z'

loop_
  _atom_site_type_symbol
  _atom_site_label
  _atom_site_symmetry_multiplicity
  _atom_site_fract_x
  _atom_site_fract_y
  _atom_site_fract_z
  _atom_site_occupancy
  N   N1        1.0  0.7229367449239769  0.4382640153369246  0.4758968260040699  1.0000
  C   C1        1.0  0.661847518621563  0.3922258657570885  0.46410910724533494  1.0000
  C   C2        1.0  0.5858499387303726  0.33496022336219444  0.44945577557846783  1.0000
  C   C3        1.0  0.5273252554299712  0.3759172021461368  0.5325828617330655  1.0000
  C   C4        1.0  0.452766267903335  0.3207763558843366  0.5186117281694202  1.0000
  C   C5        1.0  0.3906508870733958  0.36402342521282227  0.6066464473618463  1.0000
  C   C6        1.0  0.3161141910027435  0.38190011705430105  0.5447626218362824  1.0000
  C   C7        1.0  0.2575894460306343  0.4226743150035681  0.6280094895324579  1.0000
  C   C8        1.0  0.1816149565288612  0.4411333507636779  0.5636670276864699  1.0000
  N   N2        1.0  0.1205443817609818  0.4559680373835151  0.5119358551091369  1.0000
  C   C9        1.0  0.2731092533328591  0.4458203609053659  0.7737045697920586  1.0000
  C   C10       1.0  0.3468613141409553  0.4283367715974642  0.836018606067408  1.0000
  C   C11       1.0  0.4053744608600608  0.3877474868110613  0.7532797428821885  1.0000
  C   C12       1.0  0.4380205582930932  0.22398589987899853  0.4199231588591077  1.0000
  C   C13       1.0  0.49653356164370727  0.1833118479482696  0.33724003543624836  1.0000
  C   C14       1.0  0.5703077637852663  0.23857090708229944  0.3518215193648846  1.0000
  H   H1        1.0  0.5396833348306094  0.4518191279260839  0.6065401265054788  1.0000
  H   H2        1.0  0.3037744175333191  0.3658469699736988  0.4315336873669193  1.0000
  H   H3        1.0  0.2282512030047192  0.4773277354192367  0.8390049204596048  1.0000
  H   H4        1.0  0.3586878259073661  0.44594362685095756  0.9488335120415681  1.0000
  H   H5        1.0  0.4618519079553276  0.37324491504514246  0.8044466408600348  1.0000
  H   H6        1.0  0.3815247706034137  0.17853703859959258  0.40809543945041526  1.0000
  H   H7        1.0  0.48468969822308444  0.10851367254453548  0.2619530278207567  1.0000
  H   H8        1.0  0.6151655797881074  0.20619925406179407  0.28708829480889175  1.0000
  C   C15       1.0  0.9216424740045613  0.0657427982502028  0.4938699298682492  1.0000
  C   C16       1.0  0.8846485468766134  0.07089632140701752  0.35562370191105686  1.0000
  C   C17       1.0  0.8671527836627775  0.9568061330245056  0.28507137090237844  1.0000
  C   C18       1.0  0.8848770202826328  0.8357490988821565  0.35575536354586657  1.0000
  C   C19       1.0  0.9218459526760566  0.8284797091247009  0.4939759071289682  1.0000
  C   C20       1.0  0.9402914080476216  0.9440899661170332  0.5620040468510548  1.0000
  N   N3        1.0  0.8282320635910394  0.965840442493314  0.14451777582793413  1.0000
  C   C21       1.0  0.8403045370053411  0.8806144621523537  0.03220707809394452  1.0000
  O   O1        1.0  0.8941661453314346  0.801346293599104  0.04314817963618389  1.0000
  H   H9        1.0  0.9906953165364455  0.26319777201966565  0.7552905181661957  1.0000
  H   H10       1.0  0.8697852933099106  0.16383121889721175  0.30145118852861863  1.0000
  H   H11       1.0  0.8684754144186998  0.7471483386835701  0.30441303648348006  1.0000
  H   H12       1.0  0.968818634650799  0.9392419650707315  0.6685692482587668  1.0000
  H   H13       1.0  0.9350068649753227  0.4981347567385616  0.5479574717758857  1.0000
  H   H14       1.0  0.7927215799703149  0.04463746144425418  0.11795637489958599  1.0000
  H   H15       1.0  0.8038908140694808  0.886957942997554  0.9342605967523858  1.0000
  C   C22       1.0  0.9217787067547419  0.44306295422925235  0.07067979275370484  1.0000
  C   C23       1.0  0.9922430577272701  0.44362006481524263  0.1506688513364498  1.0000
  C   C24       1.0  0.06148156081531897  0.456195187702481  0.08153091020928227  1.0000
  C   C25       1.0  0.062014929323343404  0.4686433587042127  0.9299526912038414  1.0000
  C   C26       1.0  0.992017626727751  0.4659168852038076  0.8491961125242029  1.0000
  C   C27       1.0  0.9217097662125593  0.45115954661590396  0.9171660076567236  1.0000
  N   N4        1.0  0.13255054921995235  0.48277154758352525  0.8555590088096632  1.0000
  C   C28       1.0  0.20830099984080475  0.48629749770716213  0.9294132234878671  1.0000
  H   H16       1.0  0.8006661832972399  0.3752874071657182  0.3455350272639244  1.0000
  H   H17       1.0  0.9938343011944628  0.437422105114772  0.267860483868416  1.0000
  H   H18       1.0  0.11434208481952735  0.45735385634810144  0.14744304042650103  1.0000
  H   H19       1.0  0.9925904229334234  0.47234158713763374  0.7321211319493552  1.0000
  H   H20       1.0  0.7428851641977674  0.34230304845086956  0.8054547383213855  1.0000
  H   H21       1.0  0.13006351071395117  0.4912677500334417  0.7424587382696481  1.0000
  H   H22       1.0  0.21330242861845305  0.5698292266777274  0.9993446427917858  1.0000
  H   H23       1.0  0.21763466178702418  0.3938810212642365  0.9958025137941933  1.0000
  H   H24       1.0  0.2532649814990131  0.49811744299841476  0.8485993054704895  1.0000
  Zn  Zn1       1.0  0.8376777185425677  0.44336961052519386  0.4863052326323427  1.0000
  Zn  Zn2       1.0  0.005803390090194371  0.45085190711499634  0.501539246977704  1.0000
  C   C29       1.0  0.9217196894926124  0.4444552806885371  0.7571611196671422  1.0000
  C   C30       1.0  0.921763255492938  0.44976795865016084  0.2306836679877149  1.0000
  C   C31       1.0  0.9218040324246943  0.6842510602982443  0.4882120897921627  1.0000
  C   C32       1.0  0.921678854768745  0.2099706169011899  0.49963276928866374  1.0000
  O   O2        1.0  0.9855608845546503  0.45485204613779184  0.2901636584340179  1.0000
  O   O3        1.0  0.985525554744712  0.4450490994814773  0.7092429785875585  1.0000
  O   O4        1.0  0.9855928025144628  0.6386872002046162  0.4920646563572182  1.0000
  O   O5        1.0  0.9854935794262789  0.26121395111813817  0.5073418674009333  1.0000
  O   O6        1.0  0.8579874718334438  0.6330075639700528  0.48050260700291125  1.0000
  O   O7        1.0  0.8579202244827651  0.43937102283417806  0.6976808526010794  1.0000
  O   O8        1.0  0.8579555544728205  0.44917390766177867  0.27859979960384607  1.0000
  O   O9        1.0  0.8578882493300304  0.25553580438664025  0.49577811662798466  1.0000
