data_image0
_chemical_formula_structural       NC9NC5H8C6NH7C8H10Zn2C4O8
_chemical_formula_sum              "N3 C32 H25 Zn2 O8"
_cell_length_a       17.807436237873137
_cell_length_b       9.274771166103582
_cell_length_c       9.275657083861812
_cell_angle_alpha    85.75447622105524
_cell_angle_beta     88.90332225934054
_cell_angle_gamma    88.98784114054227

_space_group_name_H-M_alt    "P 1"
_space_group_IT_number       1

loop_
  _space_group_symop_operation_xyz
  'x, y, z'

loop_
  _atom_site_type_symbol
  _atom_site_label
  _atom_site_symmetry_multiplicity
  _atom_site_fract_x
  _atom_site_fract_y
  _atom_site_fract_z
  _atom_site_occupancy
  N   N1        1.0  0.7230096175809027  0.5323605035164838  0.3953370852490976  1.0000
  C   C1        1.0  0.6622639630982651  0.49322033541204613  0.38317509156334495  1.0000
  C   C2        1.0  0.5867030455531156  0.4445342765293203  0.36804689183692463  1.0000
  C   C3        1.0  0.5687027565934123  0.3646097972309097  0.2516390275960343  1.0000
  C   C4        1.0  0.4953367472796946  0.3172150876264317  0.23685903472675962  1.0000
  C   C5        1.0  0.4389201840793795  0.3493254569881383  0.33845169086550797  1.0000
  C   C6        1.0  0.3609513151052343  0.29908517890648834  0.3228352485987467  1.0000
  C   C7        1.0  0.2991407020253444  0.39002134195161187  0.3514542520893815  1.0000
  C   C8        1.0  0.22563109011846882  0.34240126139510796  0.33668988105308695  1.0000
  C   C9        1.0  0.1627848704484787  0.43632805595423196  0.3657070798611548  1.0000
  N   N2        1.0  0.11226946637002441  0.5118387070622301  0.38903611376009084  1.0000
  C   C10       1.0  0.2133471106244402  0.20355840714859452  0.29327891890642  1.0000
  C   C11       1.0  0.2743003118327637  0.11260681260161376  0.26465063190453075  1.0000
  C   C12       1.0  0.347689112507311  0.15978759017019817  0.27919101547963887  1.0000
  C   C13       1.0  0.4576137780304462  0.4298001842632915  0.4551018573018033  1.0000
  C   C14       1.0  0.531032281870925  0.4769825536077805  0.46970947421259335  1.0000
  H   H1        1.0  0.6113191046593605  0.3392150841014674  0.17208079895898365  1.0000
  H   H2        1.0  0.4825125925177617  0.25711256232170143  0.1449262503814832  1.0000
  H   H3        1.0  0.3080843801700563  0.4984178705714273  0.3833011354722764  1.0000
  H   H4        1.0  0.1567288084336312  0.16570183960173668  0.28159071962686544  1.0000
  H   H5        1.0  0.2646692409124858  0.005113766455211222  0.23146944828424898  1.0000
  H   H6        1.0  0.3940268053786661  0.08667117315697026  0.2581867048602855  1.0000
  H   H7        1.0  0.4157045911577175  0.454604052070148  0.5360982278120121  1.0000
  H   H8        1.0  0.544397371468963  0.5384342050770219  0.5604833630084367  1.0000
  C   C15       1.0  0.9153336130974989  0.09862867677298137  0.39300968009785553  1.0000
  C   C16       1.0  0.8986287102226558  0.18215591975411027  0.2643695852237422  1.0000
  C   C17       1.0  0.8889403044724269  0.11695091494914656  0.13479803352740083  1.0000
  C   C18       1.0  0.8960003994771436  0.9668340689475543  0.13292623623230027  1.0000
  C   C19       1.0  0.9113243279059726  0.8820511062189087  0.25981783154064764  1.0000
  C   C20       1.0  0.9199525389993206  0.9455591980118567  0.3913759688369396  1.0000
  N   N3        1.0  0.8727032426116309  0.20354571350502493  0.004733564691086212  1.0000
  H   H9        1.0  0.9984475343965598  0.17552781377447446  0.7071479636781826  1.0000
  H   H10       1.0  0.8948440111876919  0.29894531252610856  0.2638771142729368  1.0000
  H   H11       1.0  0.8889016454299336  0.9152083712935878  0.03322824530551305  1.0000
  H   H12       1.0  0.9146530143735202  0.7656903954549645  0.2556354674460646  1.0000
  H   H13       1.0  0.9728791408338229  0.6468051680942603  0.6051598293260538  1.0000
  H   H14       1.0  0.8675284020072798  0.3158921915292643  0.004770508790267192  1.0000
  H   H15       1.0  0.8656645506131191  0.15594623484433745  0.9074052766308918  1.0000
  C   C21       1.0  0.9195444692608443  0.5198191859575136  0.968846153587894  1.0000
  C   C22       1.0  0.9590521728090246  0.6276951540205782  0.03294467646879484  1.0000
  C   C23       1.0  0.9919612857904214  0.7420927873708387  0.948459682915685  1.0000
  C   C24       1.0  0.9864720926096928  0.7475718615204998  0.797900099489413  1.0000
  C   C25       1.0  0.9485902017252154  0.6402560116955691  0.7323214673630609  1.0000
  C   C26       1.0  0.9157416680115272  0.5243686358676725  0.8155394927601876  1.0000
  C   C27       1.0  0.034972750100968675  0.8554983892817105  0.018750493002264612  1.0000
  C   C28       1.0  0.11725093762208272  0.8099995909544897  0.035339019805149974  1.0000
  H   H16       1.0  0.884574651976213  0.29154509847407284  0.26766272842043604  1.0000
  H   H17       1.0  0.9629211442718228  0.6248168888337662  0.1496119968511398  1.0000
  H   H18       1.0  0.012274798436775924  0.8343746037604387  0.7309339615204644  1.0000
  H   H19       1.0  0.9466879746903119  0.6459776835358675  0.6153675936967664  1.0000
  H   H20       1.0  0.8261511818278147  0.3628461984802016  0.5494612230767975  1.0000
  H   H21       1.0  0.031430220515621166  0.9604040365179431  0.9527748210379987  1.0000
  H   H22       1.0  0.01007967850046776  0.873147446557275  0.12699986730859192  1.0000
  H   H23       1.0  0.12203853148764399  0.7071318821180457  0.10419854355129265  1.0000
  H   H24       1.0  0.1436110248345157  0.7953341631243649  0.9277619478356836  1.0000
  H   H25       1.0  0.14792867157455603  0.8949720303366646  0.08724970491724093  1.0000
  Zn  Zn1       1.0  0.8353415418412328  0.5264345533120094  0.39352710592280205  1.0000
  Zn  Zn2       1.0  0.9999374065743286  0.5177529660962623  0.39085796756130464  1.0000
  C   C29       1.0  0.9164274744048523  0.5177639577284665  0.6555074079190566  1.0000
  C   C30       1.0  0.9188532806800472  0.5264252871552129  0.12887777440510373  1.0000
  C   C31       1.0  0.9191013904516714  0.7854406067390127  0.3859400038138223  1.0000
  C   C32       1.0  0.916179298674105  0.2587469089652348  0.39844525962306276  1.0000
  O   O1        1.0  0.9810845500353937  0.5253414467401658  0.1815729362962708  1.0000
  O   O2        1.0  0.9791206538237676  0.5122575842145212  0.6007860188739846  1.0000
  O   O3        1.0  0.981279026080441  0.7284099159913617  0.38310844358737595  1.0000
  O   O4        1.0  0.9789261221550436  0.30918912766078877  0.3992504043809604  1.0000
  O   O5        1.0  0.8563527700920697  0.7349983947116114  0.385134670006406  1.0000
  O   O6        1.0  0.8541944076260715  0.518847795078331  0.6028121650835498  1.0000
  O   O7        1.0  0.8561583113983  0.531931598036055  0.1835973493360019  1.0000
  O   O8        1.0  0.8539998829731784  0.3157792692233439  0.40127492552587074  1.0000
