data_image0
_chemical_formula_structural       NC8NC6H8C7OH6C7NH5Zn2C4O8
_chemical_formula_sum              "N3 C32 H19 O9 Zn2"
_cell_length_a       17.457602349358154
_cell_length_b       9.274078303013075
_cell_length_c       10.302823150593486
_cell_angle_alpha    85.7362338049235
_cell_angle_beta     92.87590926728866
_cell_angle_gamma    91.09880916489897

_space_group_name_H-M_alt    "P 1"
_space_group_IT_number       1

loop_
  _space_group_symop_operation_xyz
  'x, y, z'

loop_
  _atom_site_type_symbol
  _atom_site_label
  _atom_site_symmetry_multiplicity
  _atom_site_fract_x
  _atom_site_fract_y
  _atom_site_fract_z
  _atom_site_occupancy
  N   N1        1.0  0.7137158990877424  0.6127790455411759  0.630683811226302  1.0000
  C   C1        1.0  0.6529132667998889  0.5617979174983856  0.6199530836563805  1.0000
  C   C2        1.0  0.57727217494567  0.49838373766999555  0.6066136122325165  1.0000
  C   C3        1.0  0.518502794941881  0.5429668552861349  0.6815911391636722  1.0000
  C   C4        1.0  0.44428708782100435  0.481904137624686  0.6688713708162053  1.0000
  C   C5        1.0  0.3819133648768654  0.5289773430339744  0.7482750857962068  1.0000
  C   C6        1.0  0.3072559908909774  0.5494790795453794  0.6925767835044252  1.0000
  C   C7        1.0  0.2484877105951253  0.5938580229495365  0.7676617560197017  1.0000
  C   C8        1.0  0.1723885494511208  0.6150323166892664  0.7097502538387377  1.0000
  N   N2        1.0  0.11121777864202911  0.6320493668135003  0.6631895406439077  1.0000
  C   C9        1.0  0.2638831840646673  0.6180051376843945  0.898954014433551  1.0000
  C   C10       1.0  0.3377535222458109  0.5979352107104805  0.9550407949033124  1.0000
  C   C11       1.0  0.3965091182831513  0.5537561428035185  0.8804138631644001  1.0000
  C   C12       1.0  0.4301334673449235  0.3755063088635573  0.5797398625898467  1.0000
  C   C13       1.0  0.488889458646442  0.331232550325987  0.5051629308437398  1.0000
  C   C14       1.0  0.5623197264737612  0.39242001374927726  0.5184327649089642  1.0000
  H   H1        1.0  0.5303960798698296  0.6264392214429331  0.7483945936448311  1.0000
  H   H2        1.0  0.2950007287425238  0.5328609670725191  0.5905459449807491  1.0000
  H   H3        1.0  0.2188370846477121  0.6522876680654457  0.9578508579620701  1.0000
  H   H4        1.0  0.3494857358990748  0.616282468447813  0.05670250510745867  1.0000
  H   H5        1.0  0.4530846021901859  0.5371137600341902  0.9264671178087751  1.0000
  H   H6        1.0  0.3739205782888452  0.3251797660290481  0.5689745492000433  1.0000
  H   H7        1.0  0.47750329082151466  0.24899956072268492  0.43716441088850955  1.0000
  H   H8        1.0  0.6073710832493268  0.3571720385031427  0.46004464356725827  1.0000
  C   C15       1.0  0.9147566460399648  0.19905775205966214  0.6459597364150509  1.0000
  C   C16       1.0  0.8999261660183971  0.2818030936614231  0.5275500218567104  1.0000
  C   C17       1.0  0.8784686378465746  0.21566065324162897  0.41303297022852203  1.0000
  C   C18       1.0  0.8716377781059879  0.06468585612899158  0.4168370271193518  1.0000
  C   C19       1.0  0.8873313820427413  0.9809237587864585  0.5329011028931292  1.0000
  C   C20       1.0  0.9101844351031521  0.04575986907049967  0.6479254527578113  1.0000
  C   C21       1.0  0.862667039838284  0.30581232004098546  0.29091304342964697  1.0000
  O   O1        1.0  0.8429543296218912  0.24955964905503536  0.1865049950998816  1.0000
  H   H9        1.0  0.9123974427793895  0.27557117550514043  0.965416833624734  1.0000
  H   H10       1.0  0.9033569293093385  0.3988350247320911  0.5250304080643153  1.0000
  H   H11       1.0  0.8548598347611102  0.011020936684352112  0.3297565422582618  1.0000
  H   H12       1.0  0.8833333293155495  0.864292792279602  0.5318796690052081  1.0000
  H   H13       1.0  0.9119536897679879  0.7469552980189573  0.8627796949046704  1.0000
  H   H14       1.0  0.8679619355152306  0.4223835926229722  0.28998182377324677  1.0000
  C   C22       1.0  0.9124705436422329  0.6224088405282846  0.2656944991600194  1.0000
  C   C23       1.0  0.8320382830143054  0.6289615591484052  0.25731656476010834  1.0000
  C   C24       1.0  0.7920224758219059  0.6322214800845984  0.1360459554005249  1.0000
  C   C25       1.0  0.8320382686081589  0.6289614642878214  0.02201556947338079  1.0000
  C   C26       1.0  0.9124705432247014  0.6224088330163857  0.028190665720106978  1.0000
  C   C27       1.0  0.9522664233544905  0.6191666777035154  0.15054279530596193  1.0000
  C   C28       1.0  0.7095676452341533  0.6389387449673096  0.1285864416576341  1.0000
  N   N3        1.0  0.6433009017590147  0.6443374074842136  0.12259139565530508  1.0000
  H   H15       1.0  0.9429366097641781  0.6199271668484458  0.5961901137806045  1.0000
  H   H16       1.0  0.8003168233376998  0.6315458665932794  0.3448710525141958  1.0000
  H   H17       1.0  0.8003168543308677  0.6315457619201108  0.9287215182576207  1.0000
  H   H18       1.0  0.014292885415024603  0.6141134817056675  0.1561542136088867  1.0000
  H   H19       1.0  0.9429365853155856  0.6199269341757538  0.7032074108342488  1.0000
  Zn  Zn1       1.0  0.8284263759232976  0.6183361778594394  0.6400717496909194  1.0000
  Zn  Zn2       1.0  0.9965073513853636  0.6264804143783671  0.6538122038965606  1.0000
  C   C29       1.0  0.9124998293453354  0.6166654387479187  0.8840490795535398  1.0000
  C   C30       1.0  0.9124357235795305  0.6281530614518966  0.4098351557283382  1.0000
  C   C31       1.0  0.9110447214097165  0.8857149711692014  0.642380006114839  1.0000
  C   C32       1.0  0.9138907835141997  0.3591017941638417  0.651504289673908  1.0000
  O   O2        1.0  0.9762099258385676  0.6331652802584999  0.46342449297430366  1.0000
  O   O3        1.0  0.9762952042059949  0.6178334194270727  0.8408880528646943  1.0000
  O   O4        1.0  0.9751193262817713  0.8350942777888772  0.645738499400212  1.0000
  O   O5        1.0  0.9773857463524516  0.41590442943067485  0.6585739444302281  1.0000
  O   O6        1.0  0.8475479235984136  0.8289121600294731  0.6353100044614839  1.0000
  O   O7        1.0  0.8487237921657903  0.6116530337567818  0.8304594927233295  1.0000
  O   O8        1.0  0.8486385141207065  0.6269848443522359  0.4529943718145246  1.0000
  O   O9        1.0  0.8498143346871337  0.40972398321277237  0.6481439205832391  1.0000
