data_image0
_chemical_formula_structural       NC8NC6H8C6NCOH7C6NH7Zn2C4O8
_chemical_formula_sum              "N4 C31 H22 O9 Zn2"
_cell_length_a       17.457602349358154
_cell_length_b       10.299619329790078
_cell_length_c       9.274774538082514
_cell_angle_alpha    85.06936260205663
_cell_angle_beta     93.23827242343725
_cell_angle_gamma    91.71362633690529

_space_group_name_H-M_alt    "P 1"
_space_group_IT_number       1

loop_
  _space_group_symop_operation_xyz
  'x, y, z'

loop_
  _atom_site_type_symbol
  _atom_site_label
  _atom_site_symmetry_multiplicity
  _atom_site_fract_x
  _atom_site_fract_y
  _atom_site_fract_z
  _atom_site_occupancy
  N   N1        1.0  0.7178561086974257  0.4645901330255795  0.4733842308948504  1.0000
  C   C1        1.0  0.6567275877383404  0.4187555949050059  0.46157707922303737  1.0000
  C   C2        1.0  0.5806811605978452  0.36174306223429253  0.446899590471461  1.0000
  C   C3        1.0  0.5224335835278687  0.4012641713930283  0.5301637176831735  1.0000
  C   C4        1.0  0.4478280228764464  0.34636465112064685  0.5161695516880878  1.0000
  C   C5        1.0  0.3860061079949776  0.3880910803653834  0.6043494025281992  1.0000
  C   C6        1.0  0.3112631206369852  0.40703670303884665  0.5423635570081835  1.0000
  C   C7        1.0  0.2530158811900795  0.4463729623540549  0.6257476632300698  1.0000
  C   C8        1.0  0.1768269044750141  0.4659433974287488  0.5612991281485511  1.0000
  N   N2        1.0  0.11558388254350263  0.481671646217263  0.509482672964745  1.0000
  C   C9        1.0  0.26902136670322  0.4670023900274971  0.7716829324429808  1.0000
  C   C10       1.0  0.34298115291700065  0.4484424387772872  0.8340996979465423  1.0000
  C   C11       1.0  0.4012184875567044  0.40928231776851054  0.7512244337180547  1.0000
  C   C12       1.0  0.43275333244066777  0.25127886113432707  0.4173182870820662  1.0000
  C   C13       1.0  0.4909907095217785  0.21203301017793796  0.3344988545069969  1.0000
  C   C14       1.0  0.5648135194064016  0.26704020062713707  0.34910437707411246  1.0000
  H   H1        1.0  0.5350382013289449  0.47588861957857853  0.604242906394155  1.0000
  H   H2        1.0  0.2985458956694114  0.39293938040993637  0.42894795639191896  1.0000
  H   H3        1.0  0.2243809967348277  0.4973818194349502  0.8370909354955598  1.0000
  H   H4        1.0  0.3551837360071686  0.4641006211703187  0.9471005875114691  1.0000
  H   H5        1.0  0.4578665007920474  0.3938959306540568  0.8024756840545906  1.0000
  H   H6        1.0  0.3762181167511451  0.2060343022528517  0.40547106881631034  1.0000
  H   H7        1.0  0.478895874969538  0.13853528126413273  0.25908773077499236  1.0000
  H   H8        1.0  0.6094555455786381  0.23578669663820895  0.2842644350817949  1.0000
  C   C15       1.0  0.9166217515713504  0.09175846317185932  0.49138696473004284  1.0000
  C   C16       1.0  0.8791669771688037  0.09929993914532709  0.35291282779519073  1.0000
  C   C17       1.0  0.8614360259867866  0.986428414302813  0.2822441861292939  1.0000
  C   C18       1.0  0.8793958894721908  0.8641504424045522  0.35304470648379715  1.0000
  C   C19       1.0  0.916825583520707  0.8544935434814156  0.4914931167019967  1.0000
  C   C20       1.0  0.9354978124053742  0.9689287377594774  0.559633405768085  1.0000
  N   N3        1.0  0.8220467669741873  0.9978905321697839  0.1414588782144115  1.0000
  C   C21       1.0  0.8337448498555696  0.9146045154065437  0.02896302811367013  1.0000
  O   O1        1.0  0.8876429306185705  0.8351473591707285  0.039922166858831876  1.0000
  H   H9        1.0  0.9865460462030229  0.2846978704815226  0.7532385239115975  1.0000
  H   H10       1.0  0.8641231381675514  0.19317056853814396  0.2986510070781174  1.0000
  H   H11       1.0  0.8628231326709203  0.7764365277737167  0.30161773785509505  1.0000
  H   H12       1.0  0.9643802767851005  0.9622400161624669  0.666374287673311  1.0000
  H   H13       1.0  0.9301664447221147  0.523216157485689  0.5455636738906484  1.0000
  H   H14       1.0  0.7864477402560618  0.07714635114079216  0.11485368888170511  1.0000
  H   H15       1.0  0.7970046198630628  0.9226398440472099  0.9308550748624773  1.0000
  C   C22       1.0  0.9153472693659901  0.4763884611251539  0.06749916784618226  1.0000
  C   C23       1.0  0.969747712917866  0.5553628664285655  0.13918195468269468  1.0000
  C   C24       1.0  0.027588305428609017  0.6237871886800741  0.06367431993871664  1.0000
  C   C25       1.0  0.03149684879985948  0.613556284695671  0.9150504560414365  1.0000
  C   C26       1.0  0.9773433905844001  0.5374533659812097  0.841687852084192  1.0000
  C   C27       1.0  0.9181000867491763  0.46986347942508466  0.9153808813390629  1.0000
  N   N4        1.0  0.08286973755248872  0.7026187546138654  0.13844229114298434  1.0000
  H   H16       1.0  0.800564560293528  0.21758814575831398  0.18297245089878644  1.0000
  H   H17       1.0  0.9683679135286665  0.5614629289757824  0.25507755871361115  1.0000
  H   H18       1.0  0.07615393505261081  0.6656502993763795  0.8555785999676391  1.0000
  H   H19       1.0  0.9807646297281898  0.5339878473892632  0.7258249048767511  1.0000
  H   H20       1.0  0.8384339737101519  0.29940476675308236  0.6420492838027516  1.0000
  H   H21       1.0  0.08064332529132678  0.7106671608341784  0.24961107671772464  1.0000
  H   H22       1.0  0.1264188431983666  0.7536439196663096  0.08315844024905616  1.0000
  Zn  Zn1       1.0  0.8326317790010431  0.46951594186964174  0.4838097965396746  1.0000
  Zn  Zn2       1.0  0.0008082335182741929  0.4767350984953205  0.49906892526744207  1.0000
  C   C28       1.0  0.9175766548562956  0.4659230679026374  0.7551122092353864  1.0000
  C   C29       1.0  0.915865195042685  0.48032968883991756  0.22776682112437463  1.0000
  C   C30       1.0  0.9167644494394255  0.7103644541441936  0.4857197972924323  1.0000
  C   C31       1.0  0.9166773429055444  0.2358867392253432  0.4971593046110496  1.0000
  O   O2        1.0  0.9798611021470995  0.4843863673861286  0.28734486866788855  1.0000
  O   O3        1.0  0.9812227837810706  0.46734458566176706  0.7071150716095231  1.0000
  O   O4        1.0  0.9805660621566417  0.6647340479515054  0.48957871509411954  1.0000
  O   O5        1.0  0.9805177660353414  0.2869969127562959  0.5048811117331446  1.0000
  O   O6        1.0  0.8529221890935814  0.6592541251465946  0.4779976048591872  1.0000
  O   O7        1.0  0.853578910881627  0.4618662237678026  0.6955338846160855  1.0000
  O   O8        1.0  0.8522172236512953  0.47890797359518156  0.27576194597403925  1.0000
  O   O9        1.0  0.8528738878853298  0.2815185088433716  0.493298297274658  1.0000
