data_image0
_chemical_formula_structural       NC9NC5H8C7H8C6NH7Zn2C4O8
_chemical_formula_sum              "N3 C31 H23 Zn2 O8"
_cell_length_a       17.807436237873137
_cell_length_b       9.274341958901593
_cell_length_c       9.274774538082514
_cell_angle_alpha    85.03522541298749
_cell_angle_beta     89.72824813723155
_cell_angle_gamma    87.76967926577302

_space_group_name_H-M_alt    "P 1"
_space_group_IT_number       1

loop_
  _space_group_symop_operation_xyz
  'x, y, z'

loop_
  _atom_site_type_symbol
  _atom_site_label
  _atom_site_symmetry_multiplicity
  _atom_site_fract_x
  _atom_site_fract_y
  _atom_site_fract_z
  _atom_site_occupancy
  N   N1        1.0  0.6935346084567519  0.5560424656289769  0.39587359312769044  1.0000
  C   C1        1.0  0.6331280191255299  0.5170553195623724  0.38364188189651194  1.0000
  C   C2        1.0  0.5579888611426763  0.468559603512938  0.36842696120118124  1.0000
  C   C3        1.0  0.5399679930132908  0.390253448409803  0.25178022419081425  1.0000
  C   C4        1.0  0.4670121434540138  0.3430447895408675  0.2369157546267  1.0000
  C   C5        1.0  0.4110306928262395  0.3737231689112963  0.3386621600238293  1.0000
  C   C6        1.0  0.3334970060987438  0.32367938562065635  0.3229562227831304  1.0000
  C   C7        1.0  0.2709014494074233  0.4142548564237811  0.35173758629187724  1.0000
  C   C8        1.0  0.1978046164556584  0.36682048630536346  0.33688842739185465  1.0000
  C   C9        1.0  0.1341434110051167  0.4603824698196599  0.36607275350492685  1.0000
  N   N2        1.0  0.08297282411938431  0.5355998207841228  0.3895361474830199  1.0000
  C   C10       1.0  0.1867213209786297  0.22852427868304281  0.29322987162873027  1.0000
  C   C11       1.0  0.2484595645333753  0.13793350071586952  0.26443919239127456  1.0000
  C   C12       1.0  0.3214387107550855  0.18493153287187702  0.27906348913270307  1.0000
  C   C13       1.0  0.42974065453692756  0.4525764036489053  0.4555522545151336  1.0000
  C   C14       1.0  0.5027500097375356  0.4995750696478878  0.4702438577637249  1.0000
  H   H1        1.0  0.5822463568374814  0.3659800112906906  0.172101231330964  1.0000
  H   H2        1.0  0.45413829502831116  0.28422190485393006  0.14479870802627448  1.0000
  H   H3        1.0  0.2788918181163785  0.5222537677178221  0.383775614554972  1.0000
  H   H4        1.0  0.1304315477799815  0.19081464612779775  0.28147432017026586  1.0000
  H   H5        1.0  0.23976140224628398  0.030857570475250284  0.2310667711040113  1.0000
  H   H6        1.0  0.3684231527906772  0.11207651345297598  0.2579307490832401  1.0000
  H   H7        1.0  0.38818719651540207  0.4762381790936139  0.5366700459699107  1.0000
  H   H8        1.0  0.5161408191794732  0.5597643101620366  0.5612027487415872  1.0000
  C   C15       1.0  0.890647127004265  0.1221176456763522  0.39291319791616575  1.0000
  C   C16       1.0  0.8991028478527356  0.2061689579629833  0.2606286020624695  1.0000
  C   C17       1.0  0.900087098190693  0.14230119217694304  0.12986658057359124  1.0000
  C   C18       1.0  0.8918145517642506  0.9931203400835353  0.1282581912016949  1.0000
  C   C19       1.0  0.8856962081894287  0.9073477513330456  0.2594368228783963  1.0000
  C   C20       1.0  0.885867567798776  0.9695130686416853  0.3925089930926793  1.0000
  C   C21       1.0  0.894535419227783  0.9242091065048512  0.9877108252236861  1.0000
  H   H9        1.0  0.8292007917244164  0.200590185140469  0.7282919534033296  1.0000
  H   H10       1.0  0.9033536094425644  0.3225751526517169  0.25807871170101904  1.0000
  H   H11       1.0  0.906507889016906  0.20971262486181486  0.02956333436585279  1.0000
  H   H12       1.0  0.8825132606267687  0.7910269326565242  0.25764607614168744  1.0000
  H   H13       1.0  0.8474932270613821  0.6719575895556564  0.6201460290825627  1.0000
  H   H14       1.0  0.9535533529340093  0.8917699164656006  0.9631090367517099  1.0000
  H   H15       1.0  0.872331593990552  0.0009759235744524197  0.8980047938387332  1.0000
  H   H16       1.0  0.8598852998400301  0.8268057137787086  0.9940476174152959  1.0000
  C   C22       1.0  0.8868879479593071  0.549576467930909  0.968914949312762  1.0000
  C   C23       1.0  0.9396542603708843  0.6319269296185488  0.034744347943500786  1.0000
  C   C24       1.0  0.9958588576056226  0.7022150457831429  0.953023129071294  1.0000
  C   C25       1.0  0.9997538221129418  0.6904608907235663  0.8039889020023989  1.0000
  C   C26       1.0  0.9472106711928191  0.611276234869121  0.7364515012672168  1.0000
  C   C27       1.0  0.8896267578146898  0.5420542241526201  0.8165072047648461  1.0000
  N   N3        1.0  0.04948897622851245  0.7843194911582156  0.021843830126999864  1.0000
  H   H17       1.0  0.7761548676008299  0.2734201585982401  0.09679768547585854  1.0000
  H   H18       1.0  0.9382630105162612  0.6388409929918468  0.15078322489317397  1.0000
  H   H19       1.0  0.043152597358065536  0.7439123454383012  0.7397201837988892  1.0000
  H   H20       1.0  0.9505841862859538  0.6070868726405692  0.6202258367591038  1.0000
  H   H21       1.0  0.8127115055879646  0.36056684719201737  0.551782644311444  1.0000
  H   H22       1.0  0.04725580252106054  0.7934821192534884  0.13324494714303703  1.0000
  H   H23       1.0  0.09180953064863573  0.8366932468575352  0.9618819880952802  1.0000
  Zn  Zn1       1.0  0.8059181126599001  0.550139235885253  0.3940530914140432  1.0000
  Zn  Zn2       1.0  0.9705894063932905  0.5414911839279166  0.39136851919010773  1.0000
  C   C28       1.0  0.8891398120907087  0.537728218701381  0.656296890461501  1.0000
  C   C29       1.0  0.8873694953573804  0.553903925934913  0.12912483160581756  1.0000
  C   C30       1.0  0.8867485696484371  0.8093885496750366  0.38683452301830856  1.0000
  C   C31       1.0  0.8897606916349166  0.28224186372340676  0.3985872777334276  1.0000
  O   O1        1.0  0.9500230403470082  0.5520680750503888  0.18187395347329205  1.0000
  O   O2        1.0  0.9514679736072712  0.5329993134616329  0.6015098254757469  1.0000
  O   O3        1.0  0.9495361775219825  0.7523684972605034  0.38391707029259337  1.0000
  O   O4        1.0  0.9519547798332728  0.33269890548432723  0.39946660136000456  1.0000
  O   O5        1.0  0.8245526830256537  0.758931517281636  0.38595501015266653  1.0000
  O   O6        1.0  0.8264844690814137  0.5395640676734097  0.6035476875599242  1.0000
  O   O7        1.0  0.8250395305480888  0.5586327943785863  0.18391008047444513  1.0000
  O   O8        1.0  0.8269712704391132  0.33926361353250933  0.40150283656611974  1.0000
