data_image0
_chemical_formula_structural       NC8NC6H8C9H8C7NH5Zn2C4O8
_chemical_formula_sum              "N3 C34 H21 Zn2 O8"
_cell_length_a       17.457602349358154
_cell_length_b       9.275152443626249
_cell_length_c       10.302823150593486
_cell_angle_alpha    85.36323106840959
_cell_angle_beta     92.87590926728866
_cell_angle_gamma    92.27213218982278

_space_group_name_H-M_alt    "P 1"
_space_group_IT_number       1

loop_
  _space_group_symop_operation_xyz
  'x, y, z'

loop_
  _atom_site_type_symbol
  _atom_site_label
  _atom_site_symmetry_multiplicity
  _atom_site_fract_x
  _atom_site_fract_y
  _atom_site_fract_z
  _atom_site_occupancy
  N   N1        1.0  0.7310490361682884  0.6142474824866493  0.6226144286101432  1.0000
  C   C1        1.0  0.6696984907094835  0.5632199360754242  0.6121387801408074  1.0000
  C   C2        1.0  0.5933758630460941  0.49974801757242515  0.5991165953792057  1.0000
  C   C3        1.0  0.5350856344122683  0.544371728162061  0.6738710550307725  1.0000
  C   C4        1.0  0.4602136635219293  0.4832534128346748  0.6614568080340169  1.0000
  C   C5        1.0  0.3983458538486974  0.530369478444904  0.7406249968230829  1.0000
  C   C6        1.0  0.3239088196609509  0.5508898818080534  0.6848241160927591  1.0000
  C   C7        1.0  0.2656174963987611  0.5953092322848814  0.7596870428941978  1.0000
  C   C8        1.0  0.18974590327592422  0.6165028052403898  0.7016695972002116  1.0000
  N   N2        1.0  0.1287580210425029  0.6335353494059028  0.6550237408552215  1.0000
  C   C9        1.0  0.2812724879039299  0.6194783329920288  0.8908584835751965  1.0000
  C   C10       1.0  0.35492712710485863  0.5993901323293882  0.947045681966606  1.0000
  C   C11       1.0  0.4132079142449482  0.5551708393365968  0.87263979588398  1.0000
  C   C12       1.0  0.44491654595237645  0.37675870874328776  0.5728576509639907  1.0000
  C   C13       1.0  0.5031967106811698  0.33244463890397324  0.4985022386495026  1.0000
  C   C14       1.0  0.5772845829671149  0.39368781357434246  0.5114659272107664  1.0000
  H   H1        1.0  0.5478760279485123  0.6279200959923246  0.7402568636711964  1.0000
  H   H2        1.0  0.3114749564683503  0.5342566385270477  0.5828764246736242  1.0000
  H   H3        1.0  0.2365948356094777  0.6537920776515231  0.9495837978074615  1.0000
  H   H4        1.0  0.3668565255704453  0.617754095263372  0.048615593456570294  1.0000
  H   H5        1.0  0.4696045362659206  0.5385133036609941  0.9187763190669571  1.0000
  H   H6        1.0  0.3881627787963797  0.32638634354083473  0.5623441415215431  1.0000
  H   H7        1.0  0.4909267542893722  0.25013677608080576  0.43091516343533276  1.0000
  H   H8        1.0  0.6219571166246336  0.35840774501124195  0.4532541656745108  1.0000
  C   C15       1.0  0.9276433662893389  0.2001494953506906  0.639960367929336  1.0000
  C   C16       1.0  0.8999595753817282  0.2815463070958919  0.5274074922822487  1.0000
  C   C17       1.0  0.8794092228815967  0.21510832603306085  0.4133708871006727  1.0000
  C   C18       1.0  0.886219982223478  0.06609669082839176  0.4096361288647914  1.0000
  C   C19       1.0  0.9124031105318353  0.9829389540988945  0.5211345635958275  1.0000
  C   C20       1.0  0.9321709711182958  0.04762259096979937  0.6376896240979324  1.0000
  C   C21       1.0  0.8654285620189668  0.9979388555949117  0.29158396299237  1.0000
  C   C22       1.0  0.8480206060673864  0.9408392636735121  0.19273391361177428  1.0000
  C   C23       1.0  0.8268994924601248  0.8715470263722482  0.07279674664487601  1.0000
  H   H9        1.0  0.03791388014910235  0.2871487659872929  0.9082318850314466  1.0000
  H   H10       1.0  0.8959170859036308  0.3978677430058175  0.5266696863328055  1.0000
  H   H11       1.0  0.8588913530250536  0.2803530299832311  0.3276144219605577  1.0000
  H   H12       1.0  0.9156341726479554  0.866785622243772  0.5177760874183246  1.0000
  H   H13       1.0  0.003952723567761218  0.7558044128012443  0.8208817456293638  1.0000
  H   H14       1.0  0.8409286018796462  0.7555055717645613  0.08606889116917382  1.0000
  H   H15       1.0  0.7644389313878355  0.8811004195612019  0.049933210704546926  1.0000
  H   H16       1.0  0.8593078711936297  0.9254672827440442  0.9914006497682113  1.0000
  C   C24       1.0  0.929907175716114  0.6238860454117936  0.2575769348040984  1.0000
  C   C25       1.0  0.8495453395957512  0.6304447302888183  0.24916621451583576  1.0000
  C   C26       1.0  0.8095645679878077  0.6337076193863074  0.12787929445987767  1.0000
  C   C27       1.0  0.8495453241701025  0.6304446353418638  0.013865219703734777  1.0000
  C   C28       1.0  0.9299071752178495  0.6238860378930551  0.020073101401772098  1.0000
  C   C29       1.0  0.9696682106969531  0.6206409305945069  0.1424414527954383  1.0000
  C   C30       1.0  0.7271819303475888  0.6404310003454605  0.12038617153746389  1.0000
  N   N3        1.0  0.6609732083092464  0.6458345783500241  0.11436411385390977  1.0000
  H   H17       1.0  0.9603465703667249  0.6214021121655697  0.5880849662368353  1.0000
  H   H18       1.0  0.8178516544337784  0.6330313907482241  0.33670777193974133  1.0000
  H   H19       1.0  0.8178516843019852  0.6330312859797502  0.9205582382068886  1.0000
  H   H20       1.0  0.03164036417803984  0.6155831336566129  0.1480781542715628  1.0000
  H   H21       1.0  0.9603465434175121  0.6214018792810287  0.695102264454635  1.0000
  Zn  Zn1       1.0  0.845819237574617  0.6198096745794863  0.6319745625053446  1.0000
  Zn  Zn2       1.0  0.013987742179865759  0.6279613264339681  0.645674267818092  1.0000
  C   C31       1.0  0.929874734941158  0.6181374142583218  0.8759602517481166  1.0000
  C   C32       1.0  0.9299340909351077  0.6296354964543427  0.40168885072341576  1.0000
  C   C33       1.0  0.9313112025377286  0.8874319165498801  0.6329450152216647  1.0000
  C   C34       1.0  0.928497556692328  0.3603392577164142  0.6447041564369733  1.0000
  O   O1        1.0  0.9937621613764556  0.6346522788912181  0.45525310982156086  1.0000
  O   O2        1.0  0.9936826625251897  0.6193064583850605  0.8327933811818882  1.0000
  O   O3        1.0  0.9948417679643933  0.8367651329772441  0.6365567842079525  1.0000
  O   O4        1.0  0.9926029986078834  0.41719361183987336  0.6514896047492422  1.0000
  O   O5        1.0  0.8672039237589507  0.8305773863933936  0.6261592208923237  1.0000
  O   O6        1.0  0.8660448275783074  0.6131204454673911  0.8223957439972833  1.0000
  O   O7        1.0  0.8661243262120121  0.6284662156918359  0.44485391186989265  1.0000
  O   O8        1.0  0.8649651633851599  0.411007538319464  0.6410905041619575  1.0000
