data_image0
_chemical_formula_structural       NC9NC5H8C6FH5C6ClH5Zn2C4O8
_chemical_formula_sum              "N2 C30 H18 F1 Cl1 Zn2 O8"
_cell_length_a       17.807436237873137
_cell_length_b       9.275642734913903
_cell_length_c       10.302974078461048
_cell_angle_alpha    85.47815817126667
_cell_angle_beta     89.39214410348855
_cell_angle_gamma    88.99238798493903

_space_group_name_H-M_alt    "P 1"
_space_group_IT_number       1

loop_
  _space_group_symop_operation_xyz
  'x, y, z'

loop_
  _atom_site_type_symbol
  _atom_site_label
  _atom_site_symmetry_multiplicity
  _atom_site_fract_x
  _atom_site_fract_y
  _atom_site_fract_z
  _atom_site_occupancy
  N   N1        1.0  0.7158633443650748  0.5407882884599222  0.5554723017544174  1.0000
  C   C1        1.0  0.6550615243980593  0.5017184016079055  0.5445061259883053  1.0000
  C   C2        1.0  0.5794307430905885  0.4531197649651313  0.5308653939462671  1.0000
  C   C3        1.0  0.5609044981881711  0.3738307840173163  0.4260070108036986  1.0000
  C   C4        1.0  0.4874702399086785  0.32652146289970196  0.4126803085911528  1.0000
  C   C5        1.0  0.4315112089798644  0.35808196452743557  0.5041801290199077  1.0000
  C   C6        1.0  0.3534702221564514  0.30793192796935465  0.49009916648705243  1.0000
  C   C7        1.0  0.2917917288914549  0.3987028558703074  0.5159038194690146  1.0000
  C   C8        1.0  0.2182139292852917  0.35116810831537504  0.5025911060219708  1.0000
  C   C9        1.0  0.1555017357844961  0.4449271509417889  0.5287554039428006  1.0000
  N   N2        1.0  0.10509408492421682  0.5203029345807388  0.5497907822059471  1.0000
  C   C10       1.0  0.2057295070680578  0.2125760066048421  0.46344879484168233  1.0000
  C   C11       1.0  0.2665505461591646  0.12178969902610093  0.4376357762285532  1.0000
  C   C12       1.0  0.3400065112427473  0.16888640242940767  0.4507466247352052  1.0000
  C   C13       1.0  0.4507318687955074  0.43791982221576853  0.6092569093683002  1.0000
  C   C14       1.0  0.5242178390610708  0.48501775597735586  0.6224283049174848  1.0000
  H   H1        1.0  0.6031625383243224  0.3488667092253366  0.3543524955092825  1.0000
  H   H2        1.0  0.474230831990211  0.2669204397796401  0.3298697571525051  1.0000
  H   H3        1.0  0.3008827126425102  0.5069146035992569  0.5446214641157427  1.0000
  H   H4        1.0  0.1490572179128918  0.17478701280567188  0.45290974311274845  1.0000
  H   H5        1.0  0.2567662127761781  0.014488488380773212  0.4077168555401307  1.0000
  H   H6        1.0  0.3862469859921817  0.09589206093591396  0.43180560187424577  1.0000
  H   H7        1.0  0.4091874254111976  0.4622853997187968  0.6822063246092975  1.0000
  H   H8        1.0  0.5379930303084814  0.5459739612505938  0.7041956966313279  1.0000
  C   C15       1.0  0.9081597722327779  0.10712370766209633  0.5532236433421425  1.0000
  C   C16       1.0  0.8936223730152341  0.19120167360909956  0.436152144918742  1.0000
  C   C17       1.0  0.8861695945987239  0.1263168964432091  0.3193777222552854  1.0000
  C   C18       1.0  0.8931980390087526  0.9766562253571119  0.3176099007931017  1.0000
  C   C19       1.0  0.9063779999238705  0.8910602136049038  0.4328850940819158  1.0000
  C   C20       1.0  0.9128047865313603  0.9539560715730917  0.5520506035072392  1.0000
  F   F1        1.0  0.8729864719583822  0.209110195173156  0.20727275520702748  1.0000
  H   H9        1.0  0.9857701121979848  0.18218485547143826  0.8420776706164921  1.0000
  H   H10       1.0  0.8897875730752397  0.30802887922969013  0.4345465873101644  1.0000
  H   H11       1.0  0.8877142585561776  0.9264834984336726  0.22689259868716016  1.0000
  H   H12       1.0  0.9097697416029382  0.774721780374991  0.42926751953451747  1.0000
  H   H13       1.0  0.9620570365453539  0.653939661344912  0.7482201586594699  1.0000
  C   C21       1.0  0.910482277568327  0.5305399119854828  0.17139463881831207  1.0000
  C   C22       1.0  0.8965964759355196  0.3814684519473015  0.1810264483530739  1.0000
  C   C23       1.0  0.8897067583863622  0.30750325168540593  0.06884869779024072  1.0000
  C   C24       1.0  0.8965965099727754  0.3814685316110493  0.9459185487788586  1.0000
  C   C25       1.0  0.9104822752443341  0.5305398376574053  0.9338796580227937  1.0000
  C   C26       1.0  0.9173575026165366  0.6043489373987301  0.047272307334332186  1.0000
  Cl  Cl1       1.0  0.8723600957998783  0.12127758374536302  0.08238465880546353  1.0000
  H   H14       1.0  0.9157132524384455  0.5866925352187884  0.4950694351786189  1.0000
  H   H15       1.0  0.8910737785800407  0.32217925063037955  0.27538247349385836  1.0000
  H   H16       1.0  0.8910738309499543  0.3221792272935933  0.8601815066823773  1.0000
  H   H17       1.0  0.9280666159211399  0.7193173234840742  0.03891564218752763  1.0000
  H   H18       1.0  0.9157131094542224  0.5866925299806651  0.602041806800989  1.0000
  Zn  Zn1       1.0  0.8281869059470833  0.5348728104415243  0.5538402515722429  1.0000
  Zn  Zn2       1.0  0.9927704406752486  0.5262066591076395  0.55143352174164  1.0000
  C   C27       1.0  0.9104490823551149  0.5247957980809081  0.7897616171582142  1.0000
  C   C28       1.0  0.9105100714934565  0.5362853961411367  0.31551225477836775  1.0000
  C   C29       1.0  0.9119229002770294  0.7938869367733574  0.547098947395098  1.0000
  C   C30       1.0  0.9090361879084727  0.26719252805171334  0.5581749969780472  1.0000
  O   O1        1.0  0.9729779585794189  0.534918583350489  0.3629661105108224  1.0000
  O   O2        1.0  0.9728962839575812  0.5195841147756446  0.7404807369569066  1.0000
  O   O3        1.0  0.9740855685967565  0.7368786567256982  0.5445289244802467  1.0000
  O   O4        1.0  0.9717886178356109  0.3176240546722475  0.55891782645206  1.0000
  O   O5        1.0  0.8491686726224468  0.7434554178358184  0.5463559476762907  1.0000
  O   O6        1.0  0.8479793974820664  0.5261626082416413  0.742307688530855  1.0000
  O   O7        1.0  0.8480610718782752  0.5414970265676833  0.36479150127055027  1.0000
  O   O8        1.0  0.8468717310748257  0.32420248757653125  0.5607433145616783  1.0000
