data_image0
_chemical_formula_structural       NC9NC5H8C7OH6C6NCH9Zn2C4O8
_chemical_formula_sum              "N3 C32 H23 O9 Zn2"
_cell_length_a       17.807436237873137
_cell_length_b       9.274078303013075
_cell_length_c       9.273390368590327
_cell_angle_alpha    86.34320467180204
_cell_angle_beta     89.39974432744097
_cell_angle_gamma    87.81002060722456

_space_group_name_H-M_alt    "P 1"
_space_group_IT_number       1

loop_
  _space_group_symop_operation_xyz
  'x, y, z'

loop_
  _atom_site_type_symbol
  _atom_site_label
  _atom_site_symmetry_multiplicity
  _atom_site_fract_x
  _atom_site_fract_y
  _atom_site_fract_z
  _atom_site_occupancy
  N   N1        1.0  0.6994824205518804  0.5244093861094505  0.4034953887119388  1.0000
  C   C1        1.0  0.639103290088298  0.48519301378964386  0.3911372767895831  1.0000
  C   C2        1.0  0.5639982879767147  0.4364121651555368  0.3757651275783507  1.0000
  C   C3        1.0  0.5463425543786065  0.3558508651310468  0.25897791962300554  1.0000
  C   C4        1.0  0.4734201337985639  0.30836360118524153  0.24396046002874705  1.0000
  C   C5        1.0  0.4171069508668996  0.34101792014754784  0.3456928697367925  1.0000
  C   C6        1.0  0.3396085282683474  0.2906797984592404  0.32982469153810934  1.0000
  C   C7        1.0  0.2769479517285742  0.38179491510122787  0.3588992619549687  1.0000
  C   C8        1.0  0.2038844167886059  0.33408229150825575  0.3438962751710317  1.0000
  C   C9        1.0  0.140157885831061  0.4281910714906785  0.3733841485055249  1.0000
  N   N2        1.0  0.0889347776635368  0.5038480326678898  0.39709157191362543  1.0000
  C   C10       1.0  0.1928994327775679  0.19496770563503918  0.29978968005609574  1.0000
  C   C11       1.0  0.2547027221556522  0.10383710385993683  0.2707057498416552  1.0000
  C   C12       1.0  0.3276491738195578  0.15110910944154843  0.2854825681519402  1.0000
  C   C13       1.0  0.4354511512964324  0.4221309142620271  0.46272512053689496  1.0000
  C   C14       1.0  0.5084275855760544  0.4694048654271157  0.4775691647583633  1.0000
  H   H1        1.0  0.5888806147360671  0.3300301014766003  0.1793089842705664  1.0000
  H   H2        1.0  0.4608356969807472  0.2477590963021954  0.1517434266397375  1.0000
  H   H3        1.0  0.2848684681250044  0.49039284380337467  0.39128970739292424  1.0000
  H   H4        1.0  0.1366359650002308  0.15703782680496414  0.28791177693785985  1.0000
  H   H5        1.0  0.2460792291756451  0.9961359297302274  0.23698590389321605  1.0000
  H   H6        1.0  0.3746791222982335  0.07785935066449845  0.26411149995554783  1.0000
  H   H7        1.0  0.3936329378160248  0.4473682043737388  0.5438288630101746  1.0000
  H   H8        1.0  0.5215333631212442  0.531352830288804  0.5686344267738492  1.0000
  C   C15       1.0  0.896452213695895  0.09052909760510452  0.39896413641615425  1.0000
  C   C16       1.0  0.8819400714889404  0.17337716963814853  0.26909133521338746  1.0000
  C   C17       1.0  0.8609343990406882  0.10805386634387504  0.14424856514942896  1.0000
  C   C18       1.0  0.8542411955112292  0.9578150496817615  0.1492020128506506  1.0000
  C   C19       1.0  0.8695993545650681  0.8738352124295131  0.2763784277004384  1.0000
  C   C20       1.0  0.8919722316804702  0.9377169882182712  0.4016352221700208  1.0000
  C   C21       1.0  0.845471362416735  0.19836271749638068  0.010360505977210721  1.0000
  O   O1        1.0  0.8261736427669054  0.1428719837103385  0.8965542076570077  1.0000
  H   H9        1.0  0.8940916461235978  0.17105197101379743  0.7538766833849719  1.0000
  H   H10       1.0  0.8853017913004823  0.290032269420748  0.265927330787068  1.0000
  H   H11       1.0  0.8378161860400712  0.9048196858629465  0.05431900984274329  1.0000
  H   H12       1.0  0.8656823703144267  0.7575966725327087  0.27567181233298643  1.0000
  H   H13       1.0  0.8936726517638814  0.6412694921600787  0.6399766608635715  1.0000
  H   H14       1.0  0.8506592446538446  0.31438731327510383  0.008760663060362939  1.0000
  C   C22       1.0  0.8942708338411254  0.5096229422281373  0.9770391327697907  1.0000
  C   C23       1.0  0.9633057294420084  0.5031128681570054  0.04949769232216905  1.0000
  C   C24       1.0  0.031065855128345587  0.5100757969292455  0.9730010505084903  1.0000
  C   C25       1.0  0.031512060065526315  0.523848617658413  0.8214080347719674  1.0000
  C   C26       1.0  0.9629480698701285  0.5279018247850171  0.7481246718320778  1.0000
  C   C27       1.0  0.8941536159808153  0.5186231911491341  0.8235601770855623  1.0000
  N   N3        1.0  0.10053352383411629  0.532405382049258  0.739522261802867  1.0000
  C   C28       1.0  0.17472932669906038  0.5286581456139066  0.8052909811367415  1.0000
  H   H15       1.0  0.7760251535397961  0.44659434842325574  0.2646110018131673  1.0000
  H   H16       1.0  0.9649027942000329  0.496067510290118  0.1664982059612008  1.0000
  H   H17       1.0  0.0828494944537399  0.5060148827680075  0.03326650839337719  1.0000
  H   H18       1.0  0.9634698585038158  0.5349801000925618  0.6310102510114128  1.0000
  H   H19       1.0  0.7196158490057173  0.4158027462658005  0.7305954305382159  1.0000
  H   H20       1.0  0.09804469318523257  0.5420941362173561  0.6267166620406712  1.0000
  H   H21       1.0  0.17911707162079482  0.6209348557243519  0.8749710666629977  1.0000
  H   H22       1.0  0.1844410708514479  0.42506243739566996  0.8703691020358528  1.0000
  H   H23       1.0  0.21871082482689985  0.5372381174618939  0.7197106612198998  1.0000
  Zn  Zn1       1.0  0.8118699761868549  0.5184720632706159  0.4016557091968562  1.0000
  Zn  Zn2       1.0  0.9765472643698085  0.5097737230639237  0.3989430637447058  1.0000
  C   C29       1.0  0.8942044690439951  0.5111754369078387  0.6635314905490122  1.0000
  C   C30       1.0  0.8942145601392673  0.5170720760160139  0.13706739997698625  1.0000
  C   C31       1.0  0.8928159602424675  0.7775195984131267  0.3953867216057765  1.0000
  C   C32       1.0  0.8956030219019734  0.2507261852144178  0.40521224122590604  1.0000
  O   O2        1.0  0.9566898800919613  0.5162648054544297  0.18974489367474345  1.0000
  O   O3        1.0  0.9567154062610973  0.5053797758957943  0.6087947433771677  1.0000
  O   O4        1.0  0.955593325184875  0.7204561151260329  0.3922659638931514  1.0000
  O   O5        1.0  0.9578119049353797  0.30118847836230245  0.4062735660461112  1.0000
  O   O6        1.0  0.8306052794250004  0.7270573109420428  0.3943252078135664  1.0000
  O   O7        1.0  0.8317273513437603  0.5119827039779197  0.6108539159100159  1.0000
  O   O8        1.0  0.8317018257304152  0.522867664842209  0.19180233313495032  1.0000
  O   O9        1.0  0.8328238506103538  0.3077913285817775  0.4083311135370835  1.0000
