data_image0
_chemical_formula_structural       NC8NC6H8C7NH5C7H8Zn2C4O8
_chemical_formula_sum              "N3 C32 H21 Zn2 O8"
_cell_length_a       17.457602349358154
_cell_length_b       10.302819778424748
_cell_length_c       9.274345330872308
_cell_angle_alpha    85.12371409326096
_cell_angle_beta     92.44621323531219
_cell_angle_gamma    91.68806980205999

_space_group_name_H-M_alt    "P 1"
_space_group_IT_number       1

loop_
  _space_group_symop_operation_xyz
  'x, y, z'

loop_
  _atom_site_type_symbol
  _atom_site_label
  _atom_site_symmetry_multiplicity
  _atom_site_fract_x
  _atom_site_fract_y
  _atom_site_fract_z
  _atom_site_occupancy
  N   N1        1.0  0.7286733452403154  0.463167349804235  0.4742477197561872  1.0000
  C   C1        1.0  0.6676437057898837  0.4173397222428463  0.46245518985220113  1.0000
  C   C2        1.0  0.5917202078717153  0.3603357912394112  0.4477958823827608  1.0000
  C   C3        1.0  0.5328508512546938  0.39989708047816963  0.5309963210561572  1.0000
  C   C4        1.0  0.4583626408566234  0.34500593104499777  0.5170195651124085  1.0000
  C   C5        1.0  0.3958822720421714  0.38677495259879047  0.6051319851640751  1.0000
  C   C6        1.0  0.32158929019505467  0.4056755049692766  0.5431868312663257  1.0000
  C   C7        1.0  0.2627194396274404  0.44505207804151525  0.6265071907790332  1.0000
  C   C8        1.0  0.18699838113429823  0.46457569225837103  0.5621009817652018  1.0000
  N   N2        1.0  0.1261315659259597  0.4802662991824451  0.5103185575098002  1.0000
  C   C9        1.0  0.2776480948325732  0.4657671718320009  0.7723375933547985  1.0000
  C   C10       1.0  0.3511546093904483  0.44725244206185044  0.8347133124552315  1.0000
  C   C11       1.0  0.4100107727521076  0.4080522733346117  0.7519014148095453  1.0000
  C   C12       1.0  0.4440389516129044  0.2498875346103313  0.4182506049190191  1.0000
  C   C13       1.0  0.5028947703702262  0.21060169805084672  0.33549451181705536  1.0000
  C   C14       1.0  0.5765957132531783  0.26560086987661347  0.3500821820694755  1.0000
  H   H1        1.0  0.5448917719139614  0.4745449086961111  0.6050133628959677  1.0000
  H   H2        1.0  0.30970842349665056  0.3915109992700887  0.42985246028943225  1.0000
  H   H3        1.0  0.23251946432746742  0.49617837346178284  0.8376956585699789  1.0000
  H   H4        1.0  0.3625234631180512  0.4629770565351998  0.9476330453376838  1.0000
  H   H5        1.0  0.46628663752058075  0.392703064121217  0.8031189817556883  1.0000
  H   H6        1.0  0.3876027544919128  0.20464967609292484  0.4064179544402047  1.0000
  H   H7        1.0  0.491373110963749  0.13707939511593215  0.26014630932641514  1.0000
  H   H8        1.0  0.6217220624345224  0.23431622622825166  0.2852919023378788  1.0000
  C   C15       1.0  0.9274060896312598  0.09046389139730371  0.4922896804032626  1.0000
  C   C16       1.0  0.8821234919335905  0.07774631311528757  0.6145581741576931  1.0000
  C   C17       1.0  0.8595949535908031  0.954316616930239  0.6753879045616522  1.0000
  C   C18       1.0  0.8821235538115066  0.8424453059340746  0.6145581845029024  1.0000
  C   C19       1.0  0.9274061020970409  0.8529599188204094  0.49228972442919505  1.0000
  C   C20       1.0  0.9498108236192138  0.9774593173394207  0.4317943254570007  1.0000
  C   C21       1.0  0.8131737266525645  0.9424083464105959  0.8007310857339074  1.0000
  N   N3        1.0  0.7758662507069639  0.932838024545504  0.9014658850204087  1.0000
  H   H9        1.0  0.9445580353702498  0.42260343551502033  0.44597673274774685  1.0000
  H   H10       1.0  0.8642645411564737  0.16358931583190972  0.6627792726389592  1.0000
  H   H11       1.0  0.8642646370143632  0.7474397160675883  0.6627792470532385  1.0000
  H   H12       1.0  0.9847311624978288  0.9864172195674196  0.3375052681418689  1.0000
  H   H13       1.0  0.9445581052778276  0.52962035718003  0.44597684877947774  1.0000
  C   C22       1.0  0.9291410423500207  0.4747057381636559  0.06864470627256014  1.0000
  C   C23       1.0  0.883476504230482  0.5641902091308848  0.12976005868304696  1.0000
  C   C24       1.0  0.8332268767882528  0.6430365992972615  0.043166100963237364  1.0000
  C   C25       1.0  0.8268671397772409  0.6332122116209513  0.8936447218729531  1.0000
  C   C26       1.0  0.8737208526735369  0.5474292385615591  0.8306330058415359  1.0000
  C   C27       1.0  0.9256711233750383  0.4687181295390572  0.9159346744282497  1.0000
  C   C28       1.0  0.7740097075370149  0.7201257959081884  0.8003189126882093  1.0000
  H   H14       1.0  0.017185705446259636  0.1957090007589708  0.20497151710646389  1.0000
  H   H15       1.0  0.8854292809196456  0.5712410790573186  0.2457542737376872  1.0000
  H   H16       1.0  0.7986087566408354  0.7108994089587679  0.09318659183872335  1.0000
  H   H17       1.0  0.8708174227487553  0.5443442658831286  0.7139774502645317  1.0000
  H   H18       1.0  0.9877403885994823  0.28369164945609127  0.6576722642881556  1.0000
  H   H19       1.0  0.8053295755027401  0.8116149326852662  0.7640373060761063  1.0000
  H   H20       1.0  0.7236810312840957  0.74440658822326  0.8613263227159669  1.0000
  H   H21       1.0  0.7524637965179332  0.6712203130337668  0.7037619264336463  1.0000
  Zn  Zn1       1.0  0.8433711680798015  0.4680981967287323  0.4846653140588195  1.0000
  Zn  Zn2       1.0  0.01143368046624027  0.47532472420651883  0.4999127743869618  1.0000
  C   C29       1.0  0.9263253191018671  0.4646777265896649  0.7557786020650263  1.0000
  C   C30       1.0  0.9284813641017264  0.4787469103800588  0.22879979447922638  1.0000
  C   C31       1.0  0.9274256931939528  0.7088724325270852  0.48654051091739925  1.0000
  C   C32       1.0  0.9273809323466472  0.23455064160475003  0.49803795733781997  1.0000
  O   O1        1.0  0.9920388176408004  0.48283993018915683  0.288335636847479  1.0000
  O   O2        1.0  0.9903234254629832  0.46606849743570744  0.7078148139953591  1.0000
  O   O3        1.0  0.9912111255458615  0.663258763173755  0.4904030724859385  1.0000
  O   O4        1.0  0.991151060652554  0.2856496720369912  0.5057472649849817  1.0000
  O   O5        1.0  0.8636537305420315  0.6577732464336683  0.47883081825000096  1.0000
  O   O6        1.0  0.8627660307706903  0.46058454106891644  0.696242482837657  1.0000
  O   O7        1.0  0.8644814301027381  0.4773559408396024  0.2767615712069471  1.0000
  O   O8        1.0  0.8635936726684035  0.280165672636963  0.49417330750556965  1.0000
