data_image0
_chemical_formula_structural       NC9NC5H8C7OH6C7H8Zn2C4O8
_chemical_formula_sum              "N2 C32 H22 O9 Zn2"
_cell_length_a       17.807436237873137
_cell_length_b       9.274078303013075
_cell_length_c       9.274345330872308
_cell_angle_alpha    85.29477198450356
_cell_angle_beta     88.93938532988027
_cell_angle_gamma    87.81002060722456

_space_group_name_H-M_alt    "P 1"
_space_group_IT_number       1

loop_
  _space_group_symop_operation_xyz
  'x, y, z'

loop_
  _atom_site_type_symbol
  _atom_site_label
  _atom_site_symmetry_multiplicity
  _atom_site_fract_x
  _atom_site_fract_y
  _atom_site_fract_z
  _atom_site_occupancy
  N   N1        1.0  0.7056091498978395  0.5532799916535203  0.4013843217465727  1.0000
  C   C1        1.0  0.6452774447949108  0.5142870989103194  0.3890098686237913  1.0000
  C   C2        1.0  0.570231434681858  0.4657842346009078  0.37361739273379  1.0000
  C   C3        1.0  0.5530238824476827  0.3873348717356542  0.25667575640100826  1.0000
  C   C4        1.0  0.4801590927130178  0.34011917803722214  0.24163843913604244  1.0000
  C   C5        1.0  0.4234555025532213  0.37093380530621145  0.34350537017770866  1.0000
  C   C6        1.0  0.3460179755088374  0.32088263794940963  0.3276162093983557  1.0000
  C   C7        1.0  0.2832458227026792  0.411471980692635  0.35672922528208373  1.0000
  C   C8        1.0  0.2102398630673835  0.36403066562602704  0.3417063999649177  1.0000
  C   C9        1.0  0.1464001697565131  0.4576061976908712  0.37123326527903666  1.0000
  N   N2        1.0  0.0950860822296532  0.5328344424930451  0.3949720371455361  1.0000
  C   C10       1.0  0.1994241420629979  0.22571368728895647  0.29754148245288814  1.0000
  C   C11       1.0  0.2613390436265283  0.13510902867177266  0.2684190943950657  1.0000
  C   C12       1.0  0.3342287879275228  0.1821138156749873  0.28321545217474386  1.0000
  C   C13       1.0  0.4413505812449709  0.4499304309962626  0.4606923733767705  1.0000
  C   C14       1.0  0.5142700501762304  0.49693594789416107  0.4755560459608297  1.0000
  H   H1        1.0  0.5958676794755758  0.36295481197295554  0.1769014743703321  1.0000
  H   H2        1.0  0.4679285470150056  0.2811822922619407  0.1492994666486711  1.0000
  H   H3        1.0  0.2910420378655332  0.5194841724247636  0.3891625007869708  1.0000
  H   H4        1.0  0.1432062568020459  0.18799860411508718  0.28564787311701023  1.0000
  H   H5        1.0  0.2528449535735486  0.02801763190474693  0.23465466050597494  1.0000
  H   H6        1.0  0.3813407497932866  0.10925052347973763  0.26181612489549977  1.0000
  H   H7        1.0  0.3992211248933777  0.47370107068896594  0.5419033597817569  1.0000
  H   H8        1.0  0.5270263566273545  0.5572371218603973  0.5667417240809569  1.0000
  C   C15       1.0  0.9025963321281233  0.1194816446585989  0.3968470777505668  1.0000
  C   C16       1.0  0.8885825884204558  0.20467828893372553  0.26680254501731726  1.0000
  C   C17       1.0  0.8680560112767669  0.14161259663791803  0.14179469466114858  1.0000
  C   C18       1.0  0.8613437984483806  0.991284203639066  0.14675469233393423  1.0000
  C   C19       1.0  0.8762139066269103  0.9050045546094656  0.27409927326746875  1.0000
  C   C20       1.0  0.8981060995820342  0.9666212323338162  0.3995216954960459  1.0000
  C   C21       1.0  0.8531067820639568  0.23434263048923443  0.007729594560405895  1.0000
  O   O1        1.0  0.8342458042705196  0.18090992818271445  0.8937728095362276  1.0000
  H   H9        1.0  0.898873755889275  0.19358640936047689  0.752228927562735  1.0000
  H   H10       1.0  0.8919564503821881  0.32139060541528486  0.2636343568102715  1.0000
  H   H11       1.0  0.8452829109940656  0.9400046693476509  0.05174622500114623  1.0000
  H   H12       1.0  0.8722996340759894  0.788778792886555  0.2733917235385692  1.0000
  H   H13       1.0  0.8988918630609625  0.6658636568604598  0.6381782944053245  1.0000
  H   H14       1.0  0.8583008038414586  0.3503961572421983  0.006127636162332806  1.0000
  C   C22       1.0  0.9020341272405644  0.5462054267483494  0.9743641603150648  1.0000
  C   C23       1.0  0.8567480381642449  0.6501550452742253  0.04068121878682884  1.0000
  C   C24       1.0  0.8070304170670217  0.7427406762204949  0.9597424309623217  1.0000
  C   C25       1.0  0.8008546324199128  0.732456819317598  0.8108673241784299  1.0000
  C   C26       1.0  0.8472845202079058  0.6325015862552192  0.7425395987729  1.0000
  C   C27       1.0  0.8986682684196616  0.539897487077625  0.82200453887374  1.0000
  C   C28       1.0  0.7485334059347715  0.8342639621323524  0.7235041149548  1.0000
  H   H15       1.0  0.9899760665752249  0.2275003950910719  0.10028825903565886  1.0000
  H   H16       1.0  0.8586205743959173  0.6577948339222779  0.15649114448330592  1.0000
  H   H17       1.0  0.7726990507874865  0.821572232138585  0.013706403812763002  1.0000
  H   H18       1.0  0.8444568250777553  0.6293622830888175  0.6261839991130733  1.0000
  H   H19       1.0  0.9605964563726678  0.32817192950781604  0.5564493748553994  1.0000
  H   H20       1.0  0.7786935100650496  0.9328010800898034  0.6841910050245086  1.0000
  H   H21       1.0  0.6990596341526231  0.8662345952248494  0.7899837624356216  1.0000
  H   H22       1.0  0.7277026952671377  0.782067707014197  0.629081815164203  1.0000
  Zn  Zn1       1.0  0.8180037654676198  0.5473759369062601  0.39954220961299125  1.0000
  Zn  Zn2       1.0  0.9826914636702997  0.5387266511879021  0.39682597721460655  1.0000
  C   C29       1.0  0.8993332865738098  0.535343644682259  0.6617642707736318  1.0000
  C   C30       1.0  0.9013637307394677  0.550760667874862  0.1346040337938854  1.0000
  C   C31       1.0  0.8989738073242381  0.8065368381277807  0.3932649325046018  1.0000
  C   C32       1.0  0.901723162672738  0.2795657438254828  0.4031034444642092  1.0000
  O   O2        1.0  0.9636368960950329  0.5490007967815629  0.18735118323580813  1.0000
  O   O3        1.0  0.9620542809575673  0.5305378229886801  0.6069551448952502  1.0000
  O   O4        1.0  0.961763148453701  0.7495297894818913  0.39014004819662107  1.0000
  O   O5        1.0  0.9639279727771495  0.330008844363449  0.40416617268015287  1.0000
  O   O6        1.0  0.8367672001609627  0.7560937466839164  0.3922020150667753  1.0000
  O   O7        1.0  0.8370583237813232  0.5371035137477669  0.6090170402834407  1.0000
  O   O8        1.0  0.8386409461254006  0.5555664501865556  0.18941134325970554  1.0000
  O   O9        1.0  0.8389320224294599  0.3365744866465479  0.40622644087766546  1.0000
