data_image0
_chemical_formula_structural       NC9NC5H8C7NH5C6H6Zn2C4O8
_chemical_formula_sum              "N3 C31 H19 Zn2 O8"
_cell_length_a       17.807436237873137
_cell_length_b       10.302819778424748
_cell_length_c       10.681121600428288
_cell_angle_alpha    85.56070795582023
_cell_angle_beta     89.39214167786866
_cell_angle_gamma    88.39001009685678

_space_group_name_H-M_alt    "P 1"
_space_group_IT_number       1

loop_
  _space_group_symop_operation_xyz
  'x, y, z'

loop_
  _atom_site_type_symbol
  _atom_site_label
  _atom_site_symmetry_multiplicity
  _atom_site_fract_x
  _atom_site_fract_y
  _atom_site_fract_z
  _atom_site_occupancy
  N   N1        1.0  0.7074119546317233  0.3873405735332891  0.6086722459741758  1.0000
  C   C1        1.0  0.6468244384391575  0.3521616676853505  0.5980421042660176  1.0000
  C   C2        1.0  0.5714602274267357  0.3084029829143926  0.5848193621896041  1.0000
  C   C3        1.0  0.5533688957811516  0.23701040607678303  0.48356737172709807  1.0000
  C   C4        1.0  0.4801941357226073  0.19441263353123794  0.47064926455998646  1.0000
  C   C5        1.0  0.4240619888968373  0.22283002371200666  0.5589518552412855  1.0000
  C   C6        1.0  0.3462960820133476  0.17767444337855665  0.5453023953229954  1.0000
  C   C7        1.0  0.284119697549816  0.25940546910827345  0.5703147655286869  1.0000
  C   C8        1.0  0.2108026326580199  0.21660472041488  0.5574098506616652  1.0000
  C   C9        1.0  0.1475761577454205  0.30102627364029644  0.5827731259032414  1.0000
  N   N2        1.0  0.0967550602101067  0.3688953618065194  0.6031644986583893  1.0000
  C   C10       1.0  0.1990784074401725  0.09181504501347915  0.5194681212412542  1.0000
  C   C11       1.0  0.2603974220895955  0.010070171272023254  0.4944476610254318  1.0000
  C   C12       1.0  0.3335950551940823  0.052476500746449384  0.5071572723320612  1.0000
  C   C13       1.0  0.4428447247885586  0.2947168145074506  0.660415244327021  1.0000
  C   C14       1.0  0.5160723563247752  0.3371242518140938  0.6731832607514572  1.0000
  H   H1        1.0  0.5957638690262583  0.2145325044232278  0.4144163098840796  1.0000
  H   H2        1.0  0.4672816494391926  0.14074728682622406  0.3906908456441436  1.0000
  H   H3        1.0  0.2926171248263996  0.35684037833472604  0.5981603022314479  1.0000
  H   H4        1.0  0.1426133961807905  0.05778946772588389  0.5092516934809903  1.0000
  H   H5        1.0  0.2512016507961269  0.9134551183482786  0.46544459415394046  1.0000
  H   H6        1.0  0.3802359140394425  0.9867516863677374  0.48878928985785586  1.0000
  H   H7        1.0  0.401166631098328  0.31665582352275035  0.73081456259224  1.0000
  H   H8        1.0  0.5295131926111382  0.39200981756715114  0.7521372621039089  1.0000
  C   C15       1.0  0.9020870900598806  0.9968647813667971  0.6059237324977265  1.0000
  C   C16       1.0  0.8582358455736965  0.9890432525831108  0.7162058319891296  1.0000
  C   C17       1.0  0.8364194193526717  0.8680493889133667  0.7710722197383757  1.0000
  C   C18       1.0  0.8582359062071839  0.7537422398999267  0.7162058352353655  1.0000
  C   C19       1.0  0.9020871024431545  0.7593608079624191  0.605923769543407  1.0000
  C   C20       1.0  0.9237836256562908  0.8814377613745217  0.5513589372057663  1.0000
  C   C21       1.0  0.7914655379546045  0.8611602805542476  0.8841275760367  1.0000
  N   N3        1.0  0.7553373272515085  0.8556237219518651  0.9749869986015149  1.0000
  H   H9        1.0  0.9186968715641611  0.3271498169715217  0.5641510210590752  1.0000
  H   H10       1.0  0.8409414035948546  0.07681720099899803  0.7596996608639719  1.0000
  H   H11       1.0  0.8409414973580733  0.6606675924326014  0.7596996297873688  1.0000
  H   H12       1.0  0.957600155863199  0.8866200038352073  0.46631335243485283  1.0000
  H   H13       1.0  0.9186969404842596  0.4341667331194975  0.564151115262902  1.0000
  C   C22       1.0  0.9020871115118375  0.3781127998923861  0.23817852882551382  1.0000
  C   C23       1.0  0.84831449443515  0.30845425762967493  0.17751670750055326  1.0000
  C   C24       1.0  0.8483144475298002  0.30845434309920616  0.04663456821119394  1.0000
  C   C25       1.0  0.9020870524523291  0.3781128663322839  0.9736689653373256  1.0000
  C   C26       1.0  0.9558152871650806  0.4477136740428169  0.03433083414790694  1.0000
  C   C27       1.0  0.9558152775532142  0.4477136543664082  0.16522313294692204  1.0000
  H   H14       1.0  0.9564654815691526  0.44855675081155155  0.5306670359536783  1.0000
  H   H15       1.0  0.8061649786400658  0.2538525998577703  0.23114978875275694  1.0000
  H   H16       1.0  0.8061649629499054  0.25385266171372867  0.002645759749183574  1.0000
  H   H17       1.0  0.9979703071542496  0.5023225292774969  0.9807420104011659  1.0000
  H   H18       1.0  0.9979702693024641  0.5023224855584518  0.2091663784210238  1.0000
  H   H19       1.0  0.9564657160423184  0.44855628737433983  0.6687380069233275  1.0000
  Zn  Zn1       1.0  0.8197679634343515  0.3820142196347247  0.607090071555938  1.0000
  Zn  Zn2       1.0  0.9843990332096944  0.3742111327484221  0.6047569682860328  1.0000
  C   C28       1.0  0.9020854074568648  0.3729408022231848  0.8346455631674521  1.0000
  C   C29       1.0  0.9020833869533593  0.38328610307214994  0.37720157411016064  1.0000
  C   C30       1.0  0.9020832312471512  0.615233048910298  0.6009335283740704  1.0000
  C   C31       1.0  0.9020855069859726  0.1409922992192445  0.610913676464778  1.0000
  O   O1        1.0  0.9645587699551488  0.38205541605102145  0.42297357756666853  1.0000
  O   O2        1.0  0.9645611971109127  0.36824814742394274  0.7871024278222694  1.0000
  O   O3        1.0  0.9645585975790918  0.563902240746335  0.5983783181110751  1.0000
  O   O4        1.0  0.9645613133095418  0.18640133467868858  0.6116975941778524  1.0000
  O   O5        1.0  0.8396056271539996  0.5698240203686817  0.6001494464537049  1.0000
  O   O6        1.0  0.8396082266824165  0.3741714868763051  0.7888734893932505  1.0000
  O   O7        1.0  0.8396057995766856  0.3879787102587282  0.4247431335143532  1.0000
  O   O8        1.0  0.8396083429280022  0.19232461960056013  0.613467244015135  1.0000
