data_image0
_chemical_formula_structural       NC8NC6H8C6NCOH7C6ClH5Zn2C4O8
_chemical_formula_sum              "N3 C31 H20 O9 Cl1 Zn2"
_cell_length_a       17.457602349358154
_cell_length_b       10.299619329790078
_cell_length_c       10.302974078461048
_cell_angle_alpha    85.5666042961525
_cell_angle_beta     92.87591007631781
_cell_angle_gamma    91.71362633690529

_space_group_name_H-M_alt    "P 1"
_space_group_IT_number       1

loop_
  _space_group_symop_operation_xyz
  'x, y, z'

loop_
  _atom_site_type_symbol
  _atom_site_label
  _atom_site_symmetry_multiplicity
  _atom_site_fract_x
  _atom_site_fract_y
  _atom_site_fract_z
  _atom_site_occupancy
  N   N1        1.0  0.7228126086861313  0.45284199598617114  0.6271415233271211  1.0000
  C   C1        1.0  0.6617224222892276  0.4069165954241809  0.6165235613054707  1.0000
  C   C2        1.0  0.5857236489030718  0.34979111151011155  0.6033243560721304  1.0000
  C   C3        1.0  0.5272057361966263  0.3899529833261879  0.6782023084414901  1.0000
  C   C4        1.0  0.4526456107391802  0.3349457703499903  0.665617603239878  1.0000
  C   C5        1.0  0.3905374002235786  0.3773507914138017  0.74491617865585  1.0000
  C   C6        1.0  0.3159956637951505  0.3958193993580774  0.6891734075027849  1.0000
  C   C7        1.0  0.2574776991730495  0.4357973446342376  0.7641592548673839  1.0000
  C   C8        1.0  0.1814979690607431  0.45487181324674153  0.7062018306835129  1.0000
  N   N2        1.0  0.1204231808555764  0.4702013062849777  0.6596042118393648  1.0000
  C   C9        1.0  0.2730093731516546  0.4575498234226314  0.8953962533571349  1.0000
  C   C10       1.0  0.3467665093576374  0.43947020306479967  0.9515265432062279  1.0000
  C   C11       1.0  0.4052729171030469  0.3996723119104255  0.8769982884186627  1.0000
  C   C12       1.0  0.4378918630722493  0.23909926622288125  0.5767224147513177  1.0000
  C   C13       1.0  0.4963981319890992  0.19921607477577497  0.5022443683791329  1.0000
  C   C14       1.0  0.5701735217737182  0.25433566264947594  0.5153788556995769  1.0000
  H   H1        1.0  0.5395698393210955  0.46514751108143537  0.7448204085719075  1.0000
  H   H2        1.0  0.3036466679750479  0.38084928211678837  0.587180770033664  1.0000
  H   H3        1.0  0.22815664145285694  0.48843260291914237  0.9542165100649602  1.0000
  H   H4        1.0  0.3586022097526393  0.45599798864355057  0.053146238384484734  1.0000
  H   H5        1.0  0.46175453167616254  0.3846803309881386  0.9230876285712537  1.0000
  H   H6        1.0  0.3813951120300786  0.1937635365657997  0.5660684215525769  1.0000
  H   H7        1.0  0.4845481365388059  0.12513801632926813  0.43442848271486056  1.0000
  H   H8        1.0  0.6150260653389075  0.22258318010971068  0.4570694462249787  1.0000
  C   C15       1.0  0.9215198016528453  0.08014886694177559  0.6433310624692568  1.0000
  C   C16       1.0  0.88451461454793  0.08662470926331411  0.5188037278653403  1.0000
  C   C17       1.0  0.8670131049377264  0.9732093508619688  0.45525267218428067  1.0000
  C   C18       1.0  0.8847430986776199  0.8514762274006358  0.5189223240302754  1.0000
  C   C19       1.0  0.9217232889560517  0.8428847641483788  0.6434265230543377  1.0000
  C   C20       1.0  0.9401742851318594  0.9578443349395447  0.7047038760992062  1.0000
  N   N3        1.0  0.8280809369569453  0.9835880493617414  0.3286469425217078  1.0000
  C   C21       1.0  0.8401442628097667  0.8994363159656098  0.227481420373425  1.0000
  O   O1        1.0  0.8940067622744696  0.8200634962514115  0.23733677941517595  1.0000
  H   H9        1.0  0.990593936554485  0.2751033641407903  0.8788095239966947  1.0000
  H   H10       1.0  0.8696469486998798  0.18007776449065127  0.47000703518162457  1.0000
  H   H11       1.0  0.868337311047365  0.7633665543299897  0.4726749635350489  1.0000
  H   H12       1.0  0.9687101913332512  0.9519770423711791  0.8006940574511419  1.0000
  H   H13       1.0  0.9348885979841367  0.5120234804414564  0.6920512158402492  1.0000
  H   H14       1.0  0.7925682899443722  0.0626391269586819  0.3047213677712892  1.0000
  H   H15       1.0  0.8037225622593255  0.9067166506498555  0.1392546785987896  1.0000
  C   C22       1.0  0.9216215661121574  0.46151681819811774  0.26213628714520043  1.0000
  C   C23       1.0  0.9082399580670207  0.3260472639308294  0.2702634834626496  1.0000
  C   C24       1.0  0.9016004084832581  0.25883096263029404  0.1573391886258133  1.0000
  C   C25       1.0  0.9082399924003617  0.32604733877382164  0.03515558730224888  1.0000
  C   C26       1.0  0.9216215641372864  0.4615167510750964  0.024621306050455427  1.0000
  C   C27       1.0  0.9282471525818197  0.5285911997548411  0.13875892901576714  1.0000
  Cl  Cl1       1.0  0.88488360351925  0.08959730657771092  0.16899553052757943  1.0000
  H   H16       1.0  0.9266626292836991  0.5125458804026346  0.5863778877746197  1.0000
  H   H17       1.0  0.9029177904952396  0.2721678591644412  0.36402108979224623  1.0000
  H   H18       1.0  0.9029178441029765  0.2721678429737182  0.9488201280931974  1.0000
  H   H19       1.0  0.9385674159330367  0.633069384577079  0.13156266344080936  1.0000
  H   H20       1.0  0.9266624832895659  0.5125458625362049  0.6933502453724465  1.0000
  Zn  Zn1       1.0  0.8375544300560182  0.4578480352172025  0.6365170495461359  1.0000
  Zn  Zn2       1.0  0.005681342394465494  0.4651846191215874  0.6502393132908877  1.0000
  C   C28       1.0  0.9216184618687316  0.45634298058756784  0.8804944959663537  1.0000
  C   C29       1.0  0.92161914695963  0.4666913925032947  0.4062621443465886  1.0000
  C   C30       1.0  0.9216808992492009  0.698711245984357  0.6382346793367752  1.0000
  C   C31       1.0  0.9215566517928669  0.22432156428405525  0.6485220253141659  1.0000
  O   O2        1.0  0.985421620589851  0.47120655646623355  0.45983962549738044  1.0000
  O   O3        1.0  0.9854204242500418  0.4573951343182763  0.8373315216415664  1.0000
  O   O4        1.0  0.9854699831255472  0.6531105362588976  0.6417049356527669  1.0000
  O   O5        1.0  0.9853720043464996  0.275491161312458  0.6554661094624747  1.0000
  O   O6        1.0  0.8578637107305205  0.6475414905241295  0.6312902486849854  1.0000
  O   O7        1.0  0.8578141522678452  0.4518276489037565  0.8269167656462224  1.0000
  O   O8        1.0  0.8578153486466338  0.46563902579757444  0.44942330861744995  1.0000
  O   O9        1.0  0.8577657323976648  0.26992362135475134  0.6450498899166857  1.0000
