data_image0
_chemical_formula_structural       NC9NC5H8C6FH5C6NCOH7Zn2C4O8
_chemical_formula_sum              "N3 C31 H20 F1 O9 Zn2"
_cell_length_a       17.807436237873137
_cell_length_b       9.275642734913903
_cell_length_c       10.29962270195845
_cell_angle_alpha    85.49692857715169
_cell_angle_beta     89.41121966804023
_cell_angle_gamma    88.99238798493903

_space_group_name_H-M_alt    "P 1"
_space_group_IT_number       1

loop_
  _space_group_symop_operation_xyz
  'x, y, z'

loop_
  _atom_site_type_symbol
  _atom_site_label
  _atom_site_symmetry_multiplicity
  _atom_site_fract_x
  _atom_site_fract_y
  _atom_site_fract_z
  _atom_site_occupancy
  N   N1        1.0  0.7155896061656241  0.5402698776251225  0.5550439429919449  1.0000
  C   C1        1.0  0.6547857081067775  0.5011960552415542  0.5440745153273157  1.0000
  C   C2        1.0  0.5791523418786901  0.45259252322481514  0.5304297382765848  1.0000
  C   C3        1.0  0.5606062262981033  0.3732659107923244  0.42554026053659677  1.0000
  C   C4        1.0  0.4871694426066905  0.32595180699949555  0.41220960643744164  1.0000
  C   C5        1.0  0.4312277509065562  0.357545146002622  0.5037365601291259  1.0000
  C   C6        1.0  0.3531840957387875  0.3073900560810434  0.48965142204207956  1.0000
  C   C7        1.0  0.2915104924591151  0.3981702447332507  0.5154637271093778  1.0000
  C   C8        1.0  0.2179301700919047  0.35063071952337954  0.5021470659239384  1.0000
  C   C9        1.0  0.155222934729199  0.44439915197010893  0.528319122578846  1.0000
  N   N2        1.0  0.1048192700760223  0.5197824847671808  0.5493607386514934  1.0000
  C   C10       1.0  0.2054383304012656  0.2120245704545034  0.4629931475228275  1.0000
  C   C11       1.0  0.2662544779217599  0.12122899912225682  0.4371724743436267  1.0000
  C   C12       1.0  0.3397129275129558  0.1683304077353891  0.4502872107278515  1.0000
  C   C13       1.0  0.4504683227866696  0.4374207135538286  0.6088444998382212  1.0000
  C   C14       1.0  0.5239567890335188  0.48452337425431113  0.6220198012195364  1.0000
  H   H1        1.0  0.6028506878936539  0.34827612069067215  0.3538644968856872  1.0000
  H   H2        1.0  0.4739143420772236  0.2663210649012837  0.3293744984427813  1.0000
  H   H3        1.0  0.3006069182078195  0.5063922986253515  0.5441898876570033  1.0000
  H   H4        1.0  0.1487640440943332  0.17423179440968184  0.4524509705543003  1.0000
  H   H5        1.0  0.2564644748991474  0.0139170512008846  0.40724468152914106  1.0000
  H   H6        1.0  0.3859498129359272  0.09532926870420577  0.43134057111539437  1.0000
  H   H7        1.0  0.4089377033266799  0.46181247107908785  0.6818155474240144  1.0000
  H   H8        1.0  0.5377474752130161  0.5455089241374511  0.7038114401518771  1.0000
  C   C15       1.0  0.9078856079122454  0.1066044898307359  0.5527946177648102  1.0000
  C   C16       1.0  0.8933260236294902  0.1906404412609508  0.43568840307930823  1.0000
  C   C17       1.0  0.8858511164436662  0.12571375619256053  0.3188793522482911  1.0000
  C   C18       1.0  0.8928792258512822  0.9760524506722458  0.3171110065581437  1.0000
  C   C19       1.0  0.9060810314315391  0.8904978087804131  0.4324203834345768  1.0000
  C   C20       1.0  0.912530399919616  0.9534364327622229  0.5516212300778773  1.0000
  F   F1        1.0  0.8726467498964983  0.20846682279014805  0.20674114170805313  1.0000
  H   H9        1.0  0.9855506857557403  0.18176930132032143  0.8417343015162277  1.0000
  H   H10       1.0  0.8894909194361059  0.3074670706804328  0.4340823693603235  1.0000
  H   H11       1.0  0.8873782544573582  0.9258471672029036  0.22636680323645386  1.0000
  H   H12       1.0  0.9094720875797276  0.7741580772785159  0.4288017361353318  1.0000
  H   H13       1.0  0.9618198240915574  0.6534904236921324  0.7478489571488476  1.0000
  C   C21       1.0  0.9101357565984042  0.529883663695498  0.1708523860594917  1.0000
  C   C22       1.0  0.8315003979209709  0.5451492359772503  0.16989248492873976  1.0000
  C   C23       1.0  0.7920350163202087  0.5551937291007614  0.05244106038673135  1.0000
  C   C24       1.0  0.8316681588408638  0.5454495423053216  0.9347174394484239  1.0000
  C   C25       1.0  0.910280232981849  0.530157259756338  0.9335634354066884  1.0000
  C   C26       1.0  0.9490912027948161  0.5230386866893251  0.052139957231996936  1.0000
  N   N3        1.0  0.7114577154391775  0.5685813715815167  0.05548827185799632  1.0000
  C   C27       1.0  0.6678283217778559  0.6496001623168877  0.9579490409130167  1.0000
  O   O1        1.0  0.6985399119541136  0.7313552582877125  0.8702818578291098  1.0000
  H   H14       1.0  0.058399897899440445  0.49954770871758236  0.3800250420713034  1.0000
  H   H15       1.0  0.8005103105434537  0.550533509428444  0.26049573620979527  1.0000
  H   H16       1.0  0.8011841682454592  0.5467818289514303  0.844310666465427  1.0000
  H   H17       1.0  0.009711454164578193  0.5112892179783513  0.05200248630380955  1.0000
  H   H18       1.0  0.9403678944686185  0.52210456101718  0.6058298354510083  1.0000
  H   H19       1.0  0.6826937436303332  0.5252505826831497  0.13806409984074097  1.0000
  H   H20       1.0  0.6072099384485561  0.643795378601757  0.9617407074188864  1.0000
  Zn  Zn1       1.0  0.8279128584738961  0.5343538138979851  0.5534114088432831  1.0000
  Zn  Zn2       1.0  0.9924959371264245  0.5256867988390073  0.551003965323484  1.0000
  C   C28       1.0  0.9102197420134739  0.5243614687903604  0.7894027343090999  1.0000
  C   C29       1.0  0.9101908608317749  0.5356808686549068  0.31501273850961176  1.0000
  C   C30       1.0  0.9116475753257645  0.7933655209164809  0.5466681056067098  1.0000
  C   C31       1.0  0.908762961870142  0.2666750871578074  0.5577474396700453  1.0000
  O   O2        1.0  0.9726677404299896  0.53433108606243  0.3624806661597877  1.0000
  O   O3        1.0  0.9726576048822974  0.5191320996059847  0.7401072404061082  1.0000
  O   O4        1.0  0.9738097566257922  0.7363563185412498  0.5440973205798985  1.0000
  O   O5        1.0  0.9715155325635686  0.31710688036433266  0.5584904894219487  1.0000
  O   O6        1.0  0.8488932068726318  0.7429337353318537  0.5459248855595278  1.0000
  O   O7        1.0  0.8477410646143595  0.5257112487267617  0.7419347337424034  1.0000
  O   O8        1.0  0.8477511996406485  0.5409101843742605  0.3643065982190197  1.0000
  O   O9        1.0  0.8465989917330335  0.32368596839818964  0.560316518859939  1.0000
