data_image0
_chemical_formula_structural       NC9NC5H8C6NCH9C9H8Zn2C4O8
_chemical_formula_sum              "N3 C34 H25 Zn2 O8"
_cell_length_a       17.807436237873137
_cell_length_b       9.273386996610926
_cell_length_c       9.275155815604963
_cell_angle_alpha    85.96204841331945
_cell_angle_beta     89.76311116066846
_cell_angle_gamma    87.7895077601149

_space_group_name_H-M_alt    "P 1"
_space_group_IT_number       1

loop_
  _space_group_symop_operation_xyz
  'x, y, z'

loop_
  _atom_site_type_symbol
  _atom_site_label
  _atom_site_symmetry_multiplicity
  _atom_site_fract_x
  _atom_site_fract_y
  _atom_site_fract_z
  _atom_site_occupancy
  N   N1        1.0  0.693861257134971  0.5285301647801688  0.3964341510138969  1.0000
  C   C1        1.0  0.6334479444775664  0.48932480102161824  0.3842622458237275  1.0000
  C   C2        1.0  0.5583004234179119  0.4405576458667566  0.36912171728373755  1.0000
  C   C3        1.0  0.540268617505554  0.3602191410488913  0.25272481664852364  1.0000
  C   C4        1.0  0.4673046283089279  0.31274532343099004  0.23793284005289528  1.0000
  C   C5        1.0  0.4113259008850838  0.34519020343383056  0.3395024102480715  1.0000
  C   C6        1.0  0.3337835842654288  0.2948662239607891  0.32387324739760137  1.0000
  C   C7        1.0  0.2712036371398186  0.3859549709771013  0.35251515523164145  1.0000
  C   C8        1.0  0.1980986232266856  0.33825566973816845  0.3377387142129433  1.0000
  C   C9        1.0  0.1344535572476182  0.43233840068877405  0.366779755647902  1.0000
  N   N2        1.0  0.0832959453445466  0.5079744175944667  0.39012795695814795  1.0000
  C   C10       1.0  0.1869914861161348  0.1991807219898254  0.294292684215987  1.0000
  C   C11       1.0  0.24871411759123088  0.10807650399922619  0.2656414904923847  1.0000
  C   C12       1.0  0.3217013719794005  0.15533550215434677  0.2801938626141416  1.0000
  C   C13       1.0  0.4300468927238515  0.4260800915577727  0.45614172811528086  1.0000
  C   C14       1.0  0.5030643543300428  0.4733408888579054  0.47076131123497666  1.0000
  H   H1        1.0  0.5825448036742669  0.33456229202461607  0.1731845775131149  1.0000
  H   H2        1.0  0.4544226887326245  0.2523179728316034  0.14600979783823442  1.0000
  H   H3        1.0  0.2792126816647632  0.4945264263208877  0.38439011327170536  1.0000
  H   H4        1.0  0.1306952077982105  0.16126132675972293  0.2825948729433627  1.0000
  H   H5        1.0  0.23999748391339362  0.00040508200669187033  0.23243301131969485  1.0000
  H   H6        1.0  0.36867320211907945  0.08210255632835817  0.2591704522414333  1.0000
  H   H7        1.0  0.3884954614318882  0.4511500856804074  0.5371194069068388  1.0000
  H   H8        1.0  0.5164635347728489  0.535114772088386  0.5615263372720283  1.0000
  C   C15       1.0  0.8908952339734502  0.09448214298802471  0.39395178139916065  1.0000
  C   C16       1.0  0.9036717936971297  0.17616056793836044  0.26343280020137705  1.0000
  C   C17       1.0  0.9093730372499553  0.11023389459802302  0.13302033480391495  1.0000
  C   C18       1.0  0.9023796028825158  0.9602735895886587  0.12979354132350474  1.0000
  C   C19       1.0  0.8909258391080475  0.8775585282044374  0.2598384273840786  1.0000
  C   C20       1.0  0.8862692303279478  0.9420110796073184  0.39262276664774  1.0000
  N   N3        1.0  0.9074369797197948  0.889321294704066  0.9967009138160092  1.0000
  C   C21       1.0  0.919504250508375  0.9653690554666063  0.8558638694153204  1.0000
  H   H9        1.0  0.907006076356108  0.35781518246445754  0.6303064632653714  1.0000
  H   H10       1.0  0.9074988697804449  0.2925892201446487  0.2616026511450411  1.0000
  H   H11       1.0  0.9185356338256018  0.17750888898613892  0.034975061731312485  1.0000
  H   H12       1.0  0.8873716782839257  0.7613254699642805  0.25762237967482093  1.0000
  H   H13       1.0  0.9150624185676716  0.8121538227078428  0.7431847791527659  1.0000
  H   H14       1.0  0.9021339441880938  0.777259834854527  0.9997753909562901  1.0000
  H   H15       1.0  0.8728397395232068  0.04618997667455771  0.8315786204651805  1.0000
  H   H16       1.0  0.9738947453344531  0.02005188883927156  0.855215685150625  1.0000
  H   H17       1.0  0.9211250159193379  0.887111769121857  0.7705157433430259  1.0000
  C   C22       1.0  0.8872253236935683  0.5146716713454595  0.9700840399310424  1.0000
  C   C23       1.0  0.8280564422159824  0.5880902906163779  0.03874055678856636  1.0000
  C   C24       1.0  0.7738684320374645  0.6708339461840922  0.9582008904688739  1.0000
  C   C25       1.0  0.7778433419272555  0.6818848521143839  0.8075360678949557  1.0000
  C   C26       1.0  0.8355042833994593  0.6077707138719521  0.7371968888055838  1.0000
  C   C27       1.0  0.8899391408748002  0.5218215246291111  0.8164904357098508  1.0000
  C   C28       1.0  0.7221179633439285  0.7680801115519387  0.7247030930394791  1.0000
  C   C29       1.0  0.6754579777675386  0.8402567430736747  0.655315099850394  1.0000
  C   C30       1.0  0.6188444714980598  0.9278308555199535  0.5711130176661259  1.0000
  H   H18       1.0  0.06227900438727141  0.3890358366304085  0.08040009939982973  1.0000
  H   H19       1.0  0.824702256355593  0.5842682616250954  0.15559303597343388  1.0000
  H   H20       1.0  0.7292281786310827  0.7274139993733453  0.013646934411550848  1.0000
  H   H21       1.0  0.8368556641866834  0.6144832125772215  0.6200174690524793  1.0000
  H   H22       1.0  0.0067739129214154925  0.43210916220260076  0.5411545695196422  1.0000
  H   H23       1.0  0.6340918494897898  0.9311710706483232  0.4548602594918303  1.0000
  H   H24       1.0  0.5631586067077922  0.8793972787930555  0.5871261492045732  1.0000
  H   H25       1.0  0.6163345176924834  0.03935998321547185  0.6074738035451781  1.0000
  Zn  Zn1       1.0  0.8062437424477065  0.5225944400157903  0.39462266035845395  1.0000
  Zn  Zn2       1.0  0.9709135440279214  0.5138984792822101  0.39195131384393367  1.0000
  C   C31       1.0  0.8894558847742149  0.5147212776380425  0.6565105803983484  1.0000
  C   C32       1.0  0.8877031904057315  0.5217733686987152  0.13006350322664173  1.0000
  C   C33       1.0  0.8871213748092183  0.7817617752922281  0.38713115521995634  1.0000
  C   C34       1.0  0.8900376538901116  0.25473114088177984  0.3994430088691543  1.0000
  O   O1        1.0  0.9503549327185549  0.5208503957601036  0.18274032033115106  1.0000
  O   O2        1.0  0.9517847162728538  0.509043125436907  0.6018058599521061  1.0000
  O   O3        1.0  0.9498987323438457  0.7246817616256898  0.3842800795296475  1.0000
  O   O4        1.0  0.9522408600541082  0.3052117719489953  0.4002659935927788  1.0000
  O   O5        1.0  0.8249163702277652  0.7312811503180165  0.386307981513625  1.0000
  O   O6        1.0  0.8268023444436359  0.5156442472609952  0.60383368237598  1.0000
  O   O7        1.0  0.8253725556583082  0.527451452657415  0.1847664101543669  1.0000
  O   O8        1.0  0.8272584833935619  0.31181281943764305  0.40229219148084283  1.0000
