data_image0
_chemical_formula_structural       NC9NC5H8C7OH6C6NCOH7Zn2C4O8
_chemical_formula_sum              "N3 C32 H21 O10 Zn2"
_cell_length_a       17.807436237873137
_cell_length_b       9.274078303013075
_cell_length_c       10.29962270195845
_cell_angle_alpha    85.7553890900743
_cell_angle_beta     89.41121966804023
_cell_angle_gamma    87.81002060722456

_space_group_name_H-M_alt    "P 1"
_space_group_IT_number       1

loop_
  _space_group_symop_operation_xyz
  'x, y, z'

loop_
  _atom_site_type_symbol
  _atom_site_label
  _atom_site_symmetry_multiplicity
  _atom_site_fract_x
  _atom_site_fract_y
  _atom_site_fract_z
  _atom_site_occupancy
  N   N1        1.0  0.6989943996946516  0.5408672441307494  0.5615554176662552  1.0000
  C   C1        1.0  0.6386114915931398  0.5017782676543319  0.5504208058293096  1.0000
  C   C2        1.0  0.5635017905102021  0.4531558856149418  0.5365705578592246  1.0000
  C   C3        1.0  0.545810357301246  0.37379850775493706  0.4313457277012245  1.0000
  C   C4        1.0  0.4728833461716661  0.32646605402145146  0.4178150537269423  1.0000
  C   C5        1.0  0.4166012608876019  0.35807164594388463  0.5094755679262908  1.0000
  C   C6        1.0  0.339097987691142  0.30789710425528716  0.49517839972519995  1.0000
  C   C7        1.0  0.2764462986902322  0.3987125004025338  0.5213744770832669  1.0000
  C   C8        1.0  0.2033781776247874  0.35115453782628525  0.5078568430560357  1.0000
  C   C9        1.0  0.13966066054488538  0.44495933670570453  0.5344253047708591  1.0000
  N   N2        1.0  0.0884447992822636  0.5203719055988332  0.5557856030884196  1.0000
  C   C10       1.0  0.1923797110730756  0.21249463280714953  0.46811696862054664  1.0000
  C   C11       1.0  0.2541741100511858  0.12166384801396268  0.44191245812045943  1.0000
  C   C12       1.0  0.3271250787052008  0.1687835240776776  0.4552263152131808  1.0000
  C   C13       1.0  0.4349812358328832  0.4379781918251662  0.6149211807553769  1.0000
  C   C14       1.0  0.5079622076522872  0.4850991204618309  0.628295608138375  1.0000
  H   H1        1.0  0.5883240643922957  0.3487990258039493  0.359564319976035  1.0000
  H   H2        1.0  0.4602707203743955  0.26681218519165006  0.33472785739852773  1.0000
  H   H3        1.0  0.2843767162249597  0.5069765263094774  0.5505581452231374  1.0000
  H   H4        1.0  0.1361126124484357  0.17468719950070666  0.4574150230895986  1.0000
  H   H5        1.0  0.2455403095606278  0.014310281046296947  0.4115310051771277  1.0000
  H   H6        1.0  0.3741484944579782  0.09575407284227366  0.4359710640548493  1.0000
  H   H7        1.0  0.3931878142119205  0.4623794092633735  0.6879953442390365  1.0000
  H   H8        1.0  0.5210958221024995  0.5461083225148649  0.7103450628401022  1.0000
  C   C15       1.0  0.8959628077216961  0.10703366686445182  0.5574727765827447  1.0000
  C   C16       1.0  0.8814109658888679  0.19122055627886136  0.44045787668094927  1.0000
  C   C17       1.0  0.8603671313988436  0.12718421737552754  0.3279750157030823  1.0000
  C   C18       1.0  0.8536754420433973  0.9768943371972759  0.3324380532410367  1.0000
  C   C19       1.0  0.869072476489487  0.8916034787525698  0.44702351929472584  1.0000
  C   C20       1.0  0.8914836422059859  0.9541940221045354  0.5598794146872839  1.0000
  C   C21       1.0  0.8448631677616216  0.21887327792612932  0.2073423836431756  1.0000
  O   O1        1.0  0.8255306597078802  0.16455573705568538  0.10480334172830297  1.0000
  H   H9        1.0  0.8937107301119012  0.18389785976155015  0.8772476314625421  1.0000
  H   H10       1.0  0.8847717185249055  0.3079082727762885  0.43760712072738706  1.0000
  H   H11       1.0  0.8372214286569752  0.924877092064181  0.24694882842623  1.0000
  H   H12       1.0  0.8651552762400724  0.7753722231287395  0.4463868615363211  1.0000
  H   H13       1.0  0.8932569186985814  0.6552895399963964  0.7746241443988782  1.0000
  H   H14       1.0  0.8500505609574177  0.3349143659764031  0.20590093126022957  1.0000
  C   C22       1.0  0.8936524534809399  0.5304770020912388  0.17731995312387783  1.0000
  C   C23       1.0  0.8148526201698119  0.545748494855955  0.1764245870390586  1.0000
  C   C24       1.0  0.7752790169906743  0.5557968835589651  0.05901562548586847  1.0000
  C   C25       1.0  0.8150171455232685  0.5460489176525385  0.9412508111005797  1.0000
  C   C26       1.0  0.893793982080243  0.5307507042614852  0.9400321590955376  1.0000
  C   C27       1.0  0.932681648965289  0.5236293703814616  0.05857858722823095  1.0000
  N   N3        1.0  0.694557474704708  0.5691897182007326  0.06211943307462442  1.0000
  C   C28       1.0  0.6500551667704961  0.650239930645127  0.9649227082135985  1.0000
  O   O2        1.0  0.6798859095592935  0.7320267338879736  0.8776011439362668  1.0000
  H   H15       1.0  0.042243441033834817  0.5001292818482337  0.3863643642057395  1.0000
  H   H16       1.0  0.7838045214457661  0.5511348565026419  0.2670506002793831  1.0000
  H   H17       1.0  0.7845188005784791  0.5473817210025249  0.8508496703453381  1.0000
  H   H18       1.0  0.9934284916954454  0.5118753448462794  0.05839144554489928  1.0000
  H   H19       1.0  0.9239684051145606  0.52269488242515  0.612264516440808  1.0000
  H   H20       1.0  0.6662603583468235  0.5258421242201354  0.1445120806039768  1.0000
  H   H21       1.0  0.5894993254578074  0.6444328956470136  0.9686898350574902  1.0000
  Zn  Zn1       1.0  0.8113813929748621  0.5349488859626401  0.5598978734205382  1.0000
  Zn  Zn2       1.0  0.976057851954098  0.5262785095547355  0.5574537901859211  1.0000
  C   C29       1.0  0.8937959362386215  0.5249526655002041  0.7958469563527246  1.0000
  C   C30       1.0  0.8936450973528806  0.5362764553943433  0.32150481319686475  1.0000
  C   C31       1.0  0.8923254607211343  0.7940610461034006  0.5542495394455862  1.0000
  C   C32       1.0  0.8951155258536487  0.2671663447494621  0.5631022952511497  1.0000
  O   O3        1.0  0.9561365198056551  0.5349261493124946  0.3689670346553575  1.0000
  O   O4        1.0  0.9562901414813288  0.5197212681972232  0.7465293553466201  1.0000
  O   O5        1.0  0.9551018717077292  0.7370297337145242  0.55143774861657  1.0000
  O   O6        1.0  0.9573247333137086  0.3176176970374949  0.5640585448773185  1.0000
  O   O7        1.0  0.8301144554192484  0.7436097014402219  0.5532931195563602  1.0000
  O   O8        1.0  0.8313027160135644  0.5263029689249474  0.7483846619664838  1.0000
  O   O9        1.0  0.831149094363914  0.5415077992115669  0.37082077978336336  1.0000
  O   O10       1.0  0.8323373079415108  0.3241993366546079  0.5659123873406331  1.0000
