data_image0
_chemical_formula_structural       NC8NC6H8C6SCH8C6NCOH7Zn2C4O8
_chemical_formula_sum              "N3 C32 H23 S1 O9 Zn2"
_cell_length_a       17.457602349358154
_cell_length_b       10.302809429070853
_cell_length_c       10.29962270195845
_cell_angle_alpha    85.57966227248015
_cell_angle_beta     92.8939802036364
_cell_angle_gamma    91.68806441137123

_space_group_name_H-M_alt    "P 1"
_space_group_IT_number       1

loop_
  _space_group_symop_operation_xyz
  'x, y, z'

loop_
  _atom_site_type_symbol
  _atom_site_label
  _atom_site_symmetry_multiplicity
  _atom_site_fract_x
  _atom_site_fract_y
  _atom_site_fract_z
  _atom_site_occupancy
  N   N1        1.0  0.7221619318325648  0.4519193504912802  0.6265265391022765  1.0000
  C   C1        1.0  0.6610819691135851  0.40600472936235543  0.6159109793735049  1.0000
  C   C2        1.0  0.585095914284599  0.34889265651918966  0.6027147648858873  1.0000
  C   C3        1.0  0.5265816229073015  0.38906742860330246  0.6776113061106621  1.0000
  C   C4        1.0  0.4520337683409147  0.3340731719708454  0.6650295202022458  1.0000
  C   C5        1.0  0.3899294270893132  0.3764918949956062  0.744347797936731  1.0000
  C   C6        1.0  0.31537208593057386  0.3949357404493996  0.6885851310721507  1.0000
  C   C7        1.0  0.256857812389892  0.434926680364899  0.7635896243593028  1.0000
  C   C8        1.0  0.1808618917076072  0.45397544276038726  0.705611530026842  1.0000
  N   N2        1.0  0.11977408801564891  0.46928427005076356  0.6589972932295716  1.0000
  C   C9        1.0  0.2724088146498758  0.45671701312564883  0.894865294390081  1.0000
  C   C10       1.0  0.346181525983711  0.43866216525089485  0.9510155534696088  1.0000
  C   C11       1.0  0.40468428222837705  0.39885137878474386  0.8764687745474913  1.0000
  C   C12       1.0  0.4372885766831839  0.23822644861573083  0.5761182951291157  1.0000
  C   C13       1.0  0.49579122648103185  0.19833040568149074  0.5016217511420988  1.0000
  C   C14       1.0  0.5695544206740856  0.25343718913084023  0.5147534785122758  1.0000
  H   H1        1.0  0.5389384154957201  0.46426106534955847  0.7442410023846115  1.0000
  H   H2        1.0  0.3030075524002963  0.3799355979793515  0.5865621971376456  1.0000
  H   H3        1.0  0.227559105515459  0.4876101352397162  0.95370023699006  1.0000
  H   H4        1.0  0.3580322769336706  0.4552193609183661  0.052665232401839734  1.0000
  H   H5        1.0  0.46117872486552824  0.38387978481734075  0.9225745300597941  1.0000
  H   H6        1.0  0.3808018850392523  0.19290130131605965  0.5654666190103519  1.0000
  H   H7        1.0  0.48394801419464395  0.12425248061509775  0.4337937516986179  1.0000
  H   H8        1.0  0.6144042716277175  0.22167481043684356  0.4564296531982799  1.0000
  C   C15       1.0  0.9209716946122327  0.07934853938922659  0.6427678592489785  1.0000
  C   C16       1.0  0.9652091696830866  0.0889066540968051  0.53211178883582  1.0000
  C   C17       1.0  0.9870097116491987  0.9766741878511215  0.47688854071078857  1.0000
  C   C18       1.0  0.9652090729300494  0.8537554919275566  0.5321117111425191  1.0000
  C   C19       1.0  0.920971664030754  0.8418453994204625  0.6427678499340914  1.0000
  C   C20       1.0  0.899049241342138  0.9552834601171053  0.6975288915486757  1.0000
  S   S1        1.0  0.04367119229544114  0.990382936991026  0.3356723526490144  1.0000
  C   C21       1.0  0.9605096137684258  0.9950134155147451  0.22170825880094336  1.0000
  H   H9        1.0  0.9042754928533665  0.4030607550036853  0.6844387941817163  1.0000
  H   H10       1.0  0.9827798185505083  0.18326993646686818  0.4881573915521671  1.0000
  H   H11       1.0  0.9827796492248005  0.7679195355503233  0.4881572765260189  1.0000
  H   H12       1.0  0.8649143877573857  0.9470042812642027  0.782868479476722  1.0000
  H   H13       1.0  0.9042742393649669  0.510044931807853  0.6844372637812002  1.0000
  H   H14       1.0  0.925304930765165  0.9040265049921963  0.23615018091445505  1.0000
  H   H15       1.0  0.9253056491804516  0.08026149787653569  0.23614976750989158  1.0000
  H   H16       1.0  0.9803003397415025  0.003785107653312414  0.12067781323780413  1.0000
  C   C22       1.0  0.9208986699826763  0.46046721048324923  0.26140508393723416  1.0000
  C   C23       1.0  0.8405074862522944  0.46697186733416407  0.25274644801872204  1.0000
  C   C24       1.0  0.8001475457275152  0.4723809209189618  0.13143321535253105  1.0000
  C   C25       1.0  0.8406771284841736  0.46725754572467904  0.017588109199488056  1.0000
  C   C26       1.0  0.9210446827003902  0.4607267104024717  0.024130533818597755  1.0000
  C   C27       1.0  0.960719921549455  0.4578905182171633  0.14650716651385132  1.0000
  N   N3        1.0  0.7177836895429361  0.4770169953301535  0.1265896563120008  1.0000
  C   C28       1.0  0.6727737303171639  0.5459132756543141  0.024840418051640833  1.0000
  O   O1        1.0  0.7036797285227023  0.6223100941126221  0.940254382078658  1.0000
  H   H17       1.0  0.07248205680785325  0.4468051184221755  0.4850921109619053  1.0000
  H   H18       1.0  0.8088289699850877  0.4689667218085216  0.34031510284802136  1.0000
  H   H19       1.0  0.8095381560717593  0.4656525418459416  0.9241929374501816  1.0000
  H   H20       1.0  0.022693638746098976  0.45289298466721206  0.15230469098326171  1.0000
  H   H21       1.0  0.95181655139401  0.45624751681124276  0.6993407686441473  1.0000
  H   H22       1.0  0.6886514484899111  0.43537760568634676  0.20630790761932372  1.0000
  H   H23       1.0  0.6109002497857721  0.5351137942930049  0.022682392724743705  1.0000
  Zn  Zn1       1.0  0.8369042126796014  0.4569270120767095  0.6359043956840302  1.0000
  Zn  Zn2       1.0  0.005031794954608815  0.4642659674877174  0.6496300690041108  1.0000
  C   C29       1.0  0.921015371553151  0.45550547615223436  0.879958987718825  1.0000
  C   C30       1.0  0.9209224720533548  0.4656892217200337  0.40557575431750936  1.0000
  C   C31       1.0  0.9209667260656764  0.6977153176197006  0.6375924026547923  1.0000
  C   C32       1.0  0.9209710601839641  0.22347781794182753  0.6479424039355555  1.0000
  O   O2        1.0  0.9847340015150787  0.4702212077004657  0.45916956980591284  1.0000
  O   O3        1.0  0.984808786759193  0.4565426079639132  0.8367822668499849  1.0000
  O   O4        1.0  0.9847686450691047  0.6521300810254314  0.6410694644084556  1.0000
  O   O5        1.0  0.9847740858159707  0.2746337413889386  0.6548822701907058  1.0000
  O   O6        1.0  0.8571618644445457  0.6465592356724739  0.6306521898067057  1.0000
  O   O7        1.0  0.8572020061178055  0.45097332241868204  0.8263649230034917  1.0000
  O   O8        1.0  0.8571272206258155  0.464651876383972  0.4487506645881554  1.0000
  O   O9        1.0  0.85716730494221  0.2690644008194403  0.6444634623389549  1.0000
