data_image0
_chemical_formula_structural       NC8NC6H8C8H10C6NCH9Zn2C4O8
_chemical_formula_sum              "N3 C33 H27 Zn2 O8"
_cell_length_a       17.457602349358154
_cell_length_b       9.275653711864159
_cell_length_c       9.273390368590327
_cell_angle_alpha    86.35028473640597
_cell_angle_beta     92.8511133753594
_cell_angle_gamma    91.13236207428555

_space_group_name_H-M_alt    "P 1"
_space_group_IT_number       1

loop_
  _space_group_symop_operation_xyz
  'x, y, z'

loop_
  _atom_site_type_symbol
  _atom_site_label
  _atom_site_symmetry_multiplicity
  _atom_site_fract_x
  _atom_site_fract_y
  _atom_site_fract_z
  _atom_site_occupancy
  N   N1        1.0  0.7144338338253305  0.5963695356722012  0.48005588120166265  1.0000
  C   C1        1.0  0.6536167816779045  0.5452705033079983  0.4681350330569063  1.0000
  C   C2        1.0  0.5779577520536319  0.4817097620358253  0.4533161052511483  1.0000
  C   C3        1.0  0.5191909341063539  0.5271690605419768  0.5365616274742795  1.0000
  C   C4        1.0  0.4449579352081394  0.46596669004193947  0.5224310420848224  1.0000
  C   C5        1.0  0.3825868808844217  0.5139678242196071  0.6105908196438299  1.0000
  C   C6        1.0  0.3079444991261314  0.5338096654601743  0.5487586884854521  1.0000
  C   C7        1.0  0.2491787000939997  0.5790660903957798  0.6321234636993707  1.0000
  C   C8        1.0  0.17309508213016314  0.5995542914708929  0.5678343801954688  1.0000
  N   N2        1.0  0.11193680578582789  0.6160197258686277  0.5161461053614105  1.0000
  C   C9        1.0  0.2645616696748538  0.6047565353731188  0.777885475816743  1.0000
  C   C10       1.0  0.33841709217731575  0.5853510096506385  0.8401489544669214  1.0000
  C   C11       1.0  0.39717019976342205  0.5402998250163922  0.7572927184808416  1.0000
  C   C12       1.0  0.4307844436564979  0.35853625052381943  0.42346258198614684  1.0000
  C   C13       1.0  0.4895379090112369  0.3133909804606214  0.34066184063967553  1.0000
  C   C14       1.0  0.5629854236585662  0.37472455874027344  0.35540311823251725  1.0000
  H   H1        1.0  0.5311002869030855  0.6114147349952701  0.6107383792779719  1.0000
  H   H2        1.0  0.2956996306818097  0.5159918276516304  0.43548333282770413  1.0000
  H   H3        1.0  0.21951735006542314  0.6397274532898656  0.8432769369538111  1.0000
  H   H4        1.0  0.3501395135101547  0.6048933517004624  0.9530147745167139  1.0000
  H   H5        1.0  0.45373338499654964  0.5242030142020095  0.8084176790982041  1.0000
  H   H6        1.0  0.3745573462927063  0.30809128575812594  0.4115034372475339  1.0000
  H   H7        1.0  0.4781362469034586  0.2303703894807274  0.26515853772869846  1.0000
  H   H8        1.0  0.6080346184936762  0.33879435388898993  0.2905762839565329  1.0000
  C   C15       1.0  0.9153418809486883  0.18289779751607171  0.49695175843177686  1.0000
  C   C16       1.0  0.8973587256099465  0.2640492591319541  0.3667723103213665  1.0000
  C   C17       1.0  0.8724590978823212  0.19628510686021006  0.24154307007584208  1.0000
  C   C18       1.0  0.866683690498131  0.04545480886387776  0.2456241383897051  1.0000
  C   C19       1.0  0.8854949472538174  0.9631273114786759  0.3731010692275165  1.0000
  C   C20       1.0  0.9110361357081569  0.029480798542635744  0.4992632982507821  1.0000
  C   C21       1.0  0.8545131579277065  0.2847272607338205  0.10258130018291611  1.0000
  C   C22       1.0  0.9262742181443082  0.30912836047702297  0.016344209782166663  1.0000
  H   H9        1.0  0.98493965036491  0.45300434695590197  0.7030473638316208  1.0000
  H   H10       1.0  0.9010317792071936  0.3810082699555988  0.36322266439165496  1.0000
  H   H11       1.0  0.8483298755771549  0.9913023775539983  0.14941586134835472  1.0000
  H   H12       1.0  0.8819481423059985  0.8464715146932221  0.37189923648240364  1.0000
  H   H13       1.0  0.9182208264135934  0.7332535891873639  0.737598269612731  1.0000
  H   H14       1.0  0.8098070272768122  0.22897108622145268  0.03584694318733894  1.0000
  H   H15       1.0  0.8312320855407788  0.39101115972372513  0.12601464913464122  1.0000
  H   H16       1.0  0.9709640653457693  0.3681661338951603  0.07990785474573525  1.0000
  H   H17       1.0  0.9493007650975246  0.20404510289583033  0.9887764448846998  1.0000
  H   H18       1.0  0.9118224443899174  0.3744043696315835  0.9144340494112018  1.0000
  C   C23       1.0  0.9132474246822453  0.6016960124313864  0.07485272513346342  1.0000
  C   C24       1.0  0.983708482057955  0.602314365082911  0.15484339472340358  1.0000
  C   C25       1.0  0.052872641944182286  0.6162718463731722  0.08574181731642061  1.0000
  C   C26       1.0  0.05333241778059716  0.6300884202080863  0.9341995949220006  1.0000
  C   C27       1.0  0.9833512338958532  0.6270622308649256  0.8534351320474842  1.0000
  C   C28       1.0  0.9131306176812402  0.6106826472153888  0.921362353105494  1.0000
  N   N3        1.0  0.12378451286344117  0.6457696929651429  0.8598467672782464  1.0000
  C   C29       1.0  0.19951411832643684  0.6496832438164828  0.933711178012969  1.0000
  H   H19       1.0  0.7925355852752359  0.526470033444213  0.34951197181510674  1.0000
  H   H20       1.0  0.9853363674071416  0.5954350759234461  0.27201710449832905  1.0000
  H   H21       1.0  0.10572631598455828  0.6175578851727832  0.1516572980776294  1.0000
  H   H22       1.0  0.983886047736121  0.6341931875832805  0.7363787299044722  1.0000
  H   H23       1.0  0.7349495672790431  0.48985976937268005  0.8093363013799562  1.0000
  H   H24       1.0  0.12124724543330845  0.6551998661567962  0.7467710653672057  1.0000
  H   H25       1.0  0.20402171366475907  0.7423974506440796  0.0038841475940505354  1.0000
  H   H26       1.0  0.20939413968571574  0.547107606788469  0.9998332258501819  1.0000
  H   H27       1.0  0.2444082213372405  0.6628025323303146  0.8529314399544687  1.0000
  Zn  Zn1       1.0  0.8291446235405986  0.6020363788478043  0.4904790517758997  1.0000
  Zn  Zn2       1.0  0.9972260603009828  0.6103411895122268  0.5057347028195232  1.0000
  C   C30       1.0  0.9131801760884705  0.60324139458627  0.7613380782635999  1.0000
  C   C31       1.0  0.9131923339273449  0.6091380847351833  0.2348759893553003  1.0000
  C   C32       1.0  0.9118468640044289  0.8693974502684576  0.49308247037019837  1.0000
  C   C33       1.0  0.9145255974545272  0.3429802951908496  0.5031316641574046  1.0000
  O   O1        1.0  0.9769599062376786  0.6147810559111286  0.294370681553344  1.0000
  O   O2        1.0  0.9769825307275315  0.6039004907053769  0.7134216543410272  1.0000
  O   O3        1.0  0.9759050042846187  0.8188248450962021  0.49680327906109123  1.0000
  O   O4        1.0  0.9780373752882524  0.3998567078507622  0.5109889435863479  1.0000
  O   O5        1.0  0.8483332511953772  0.812520857676734  0.4852248057954929  1.0000
  O   O6        1.0  0.8494107688371968  0.5975982343155186  0.7018431089531445  1.0000
  O   O7        1.0  0.849388144892988  0.6084787308958481  0.28279040314297776  1.0000
  O   O8        1.0  0.8504656139779485  0.39355437367248713  0.49940877320933175  1.0000
