data_image0
_chemical_formula_structural       NC9NC5H8C6NCOH7C6NCOH7Zn2C4O8
_chemical_formula_sum              "N4 C32 H22 O10 Zn2"
_cell_length_a       17.807436237873137
_cell_length_b       10.299619329790078
_cell_length_c       10.29962270195845
_cell_angle_alpha    85.58556334847248
_cell_angle_beta     89.41121966804023
_cell_angle_gamma    88.41592915749165

_space_group_name_H-M_alt    "P 1"
_space_group_IT_number       1

loop_
  _space_group_symop_operation_xyz
  'x, y, z'

loop_
  _atom_site_type_symbol
  _atom_site_label
  _atom_site_symmetry_multiplicity
  _atom_site_fract_x
  _atom_site_fract_y
  _atom_site_fract_z
  _atom_site_occupancy
  N   N1        1.0  0.707503895551835  0.3872774723342767  0.5573162246748717  1.0000
  C   C1        1.0  0.6469051171443936  0.35208478672888566  0.5462891533906573  1.0000
  C   C2        1.0  0.5715268971737278  0.3083089614516543  0.5325726740252013  1.0000
  C   C3        1.0  0.5533972099356145  0.2368617274423357  0.42756616977510786  1.0000
  C   C4        1.0  0.4802088035946758  0.19424725366149298  0.4141657155889975  1.0000
  C   C5        1.0  0.4241012613509366  0.22270247966541556  0.5057392773242217  1.0000
  C   C6        1.0  0.3463208974081703  0.17752921010931244  0.49158014798811545  1.0000
  C   C7        1.0  0.2841707397625587  0.2592923559585585  0.5175263764430253  1.0000
  C   C8        1.0  0.2108399781049018  0.2164748514892716  0.5041395826178983  1.0000
  C   C9        1.0  0.1476405014665037  0.30092942392434097  0.5304499710642541  1.0000
  N   N2        1.0  0.0968411088808689  0.36882505760387474  0.5516027963274472  1.0000
  C   C10       1.0  0.1990757571432549  0.09163621708921754  0.4647811856262196  1.0000
  C   C11       1.0  0.2603685397817054  0.009859216495557988  0.43882656636612327  1.0000
  C   C12       1.0  0.3335797285745957  0.052282121749642085  0.45201078905894043  1.0000
  C   C13       1.0  0.4429225231259097  0.29464414200874267  0.610965053388943  1.0000
  C   C14       1.0  0.5161637220015689  0.3370681749824551  0.624209842925991  1.0000
  H   H1        1.0  0.5957728564708934  0.2143541309814887  0.3558535399599416  1.0000
  H   H2        1.0  0.4672667371193678  0.14053953245423711  0.331242637398349  1.0000
  H   H3        1.0  0.2926990493502495  0.3567648960342904  0.5464121914734916  1.0000
  H   H4        1.0  0.1425998655818339  0.05759733365354758  0.4541832549005096  1.0000
  H   H5        1.0  0.2511418752810616  0.9132063831017326  0.4087404617017709  1.0000
  H   H6        1.0  0.3801998365050366  0.9865320625529695  0.43295645458504173  1.0000
  H   H7        1.0  0.4012638581230084  0.31661310745887894  0.6839720848919992  1.0000
  H   H8        1.0  0.5296342620072424  0.391996133205754  0.7060914507332254  1.0000
  C   C15       1.0  0.9020764417403491  0.996687335009859  0.5544271349937806  1.0000
  C   C16       1.0  0.8658184511069592  0.006456855654171978  0.433416710820524  1.0000
  C   C17       1.0  0.8486694526049313  0.8945977290581781  0.37152758582872103  1.0000
  C   C18       1.0  0.8660421997572109  0.7712878271736773  0.43351339906143593  1.0000
  C   C19       1.0  0.9022757097329692  0.7594049301739247  0.5545030814268108  1.0000
  C   C20       1.0  0.9203539970377886  0.872721991587199  0.6140266415615752  1.0000
  N   N3        1.0  0.8105242167197763  0.9084430426711712  0.2486232125298644  1.0000
  C   C21       1.0  0.8223173673865547  0.8231717811694936  0.14626909980514902  1.0000
  O   O1        1.0  0.8750601358791594  0.7389494819256717  0.15095454069958292  1.0000
  H   H9        1.0  0.969756424001003  0.185494810738015  0.7833418090692852  1.0000
  H   H10       1.0  0.8512512199385243  0.10123361937427022  0.3860333828360756  1.0000
  H   H11       1.0  0.849969353445859  0.6846412615113432  0.3888278787066872  1.0000
  H   H12       1.0  0.9483137087560687  0.8643148243560165  0.7073048076602075  1.0000
  H   H13       1.0  0.9151760000245351  0.42737325378903734  0.6018778493348005  1.0000
  H   H14       1.0  0.7757465615026412  0.9906858480539933  0.22810109327347594  1.0000
  H   H15       1.0  0.7866375239332839  0.8337049593101449  0.061514015348196116  1.0000
  C   C22       1.0  0.9021045688454643  0.37792290349103674  0.17310934549012402  1.0000
  C   C23       1.0  0.8233890729131141  0.39167217226296036  0.1721719648804696  1.0000
  C   C24       1.0  0.7838709623290493  0.40071896285056097  0.05473535846745925  1.0000
  C   C25       1.0  0.8235552573624809  0.39194264967070835  0.9369973624267804  1.0000
  C   C26       1.0  0.9022476089750389  0.3781693237172823  0.9358207984596509  1.0000
  C   C27       1.0  0.9410959480326031  0.3717578264891086  0.0543868186167622  1.0000
  N   N4        1.0  0.703223382463489  0.41277683341662885  0.05780232004565611  1.0000
  C   C28       1.0  0.6591686772995005  0.48574816451624314  0.9603826119952257  1.0000
  O   O2        1.0  0.6894510907082155  0.5593826648959594  0.8728360380394711  1.0000
  H   H16       1.0  0.05052796000050841  0.35060016768093516  0.38223724841299167  1.0000
  H   H17       1.0  0.7923707205687723  0.39652163492676706  0.26278315930585094  1.0000
  H   H18       1.0  0.7930642728730638  0.393142602534611  0.8465925548984012  1.0000
  H   H19       1.0  0.0017778787257374251  0.3611754126592921  0.054232014295950925  1.0000
  H   H20       1.0  0.9323775434378696  0.37091648594215565  0.6080753187677583  1.0000
  H   H21       1.0  0.6746868774283504  0.37375001858995716  0.14031422432298313  1.0000
  H   H22       1.0  0.5985807664230987  0.48051996016273724  0.9641657149993992  1.0000
  Zn  Zn1       1.0  0.819858204482044  0.3819490412243951  0.5556749628587816  1.0000
  Zn  Zn2       1.0  0.9844867809896368  0.3741429061318613  0.5532547333331983  1.0000
  C   C29       1.0  0.9022175432517522  0.3729492188783452  0.7916515471269112  1.0000
  C   C30       1.0  0.9021292404109296  0.383144281873826  0.3172782502613871  1.0000
  C   C31       1.0  0.9022332286339785  0.615233552878695  0.549313766398476  1.0000
  C   C32       1.0  0.9021134984577655  0.14085839027799563  0.5596161008966134  1.0000
  O   O3        1.0  0.9646132057488532  0.38192857090635557  0.3647441866460681  1.0000
  O   O4        1.0  0.9646828579110259  0.3682392741021816  0.7423483386019674  1.0000
  O   O5        1.0  0.9646946821066463  0.563886978281751  0.5466588785996782  1.0000
  O   O6        1.0  0.9646013253608173  0.18628087864912835  0.5604335501038362  1.0000
  O   O7        1.0  0.8397436039312092  0.5698110713723901  0.5484961469072185  1.0000
  O   O8        1.0  0.8397317801268719  0.3741649274535632  0.7441855378217916  1.0000
  O   O9        1.0  0.8396621277100196  0.38785417849555803  0.3665798245138734  1.0000
  O   O10       1.0  0.8396502473347447  0.19220647698125126  0.5622692853352378  1.0000
