data_image0
_chemical_formula_structural       NC8NC6H8C6BrH5C6H6Zn2C4O8
_chemical_formula_sum              "N2 C30 H19 Br1 Zn2 O8"
_cell_length_a       17.457602349358154
_cell_length_b       10.302969083221269
_cell_length_c       10.681121600428288
_cell_angle_alpha    85.56069838107055
_cell_angle_beta     92.87590736930572
_cell_angle_gamma    91.68807063265206

_space_group_name_H-M_alt    "P 1"
_space_group_IT_number       1

loop_
  _space_group_symop_operation_xyz
  'x, y, z'

loop_
  _atom_site_type_symbol
  _atom_site_label
  _atom_site_symmetry_multiplicity
  _atom_site_fract_x
  _atom_site_fract_y
  _atom_site_fract_z
  _atom_site_occupancy
  N   N1        1.0  0.7224250183412735  0.4523640924397403  0.6755698438258808  1.0000
  C   C1        1.0  0.6613470853924034  0.4064537938073731  0.6653333405897126  1.0000
  C   C2        1.0  0.5853635537707168  0.3493470948154116  0.6526083316641447  1.0000
  C   C3        1.0  0.5268349236546173  0.3894957659713765  0.7248305016892131  1.0000
  C   C4        1.0  0.4522894747782225  0.33450664136476993  0.712697981566776  1.0000
  C   C5        1.0  0.390169948250301  0.37689772449773473  0.7891839987738407  1.0000
  C   C6        1.0  0.3156232857678463  0.3953602537953309  0.7354124783635199  1.0000
  C   C7        1.0  0.2570946528059083  0.4353250589068556  0.8077387457542999  1.0000
  C   C8        1.0  0.1811098350511521  0.45439324942795056  0.7518309052963164  1.0000
  N   N2        1.0  0.1200309580836001  0.46971769697872734  0.7068811472208003  1.0000
  C   C9        1.0  0.272620519613648  0.45707039626505686  0.9343268857986009  1.0000
  C   C10       1.0  0.3463824780792057  0.43899672666802503  0.9884721584551783  1.0000
  C   C11       1.0  0.40489950611281544  0.39921191650812493  0.9165872615772748  1.0000
  C   C12       1.0  0.4375613018794574  0.23869164891032546  0.6269615587368322  1.0000
  C   C13       1.0  0.496078213841794  0.1988215665139197  0.5551251030308226  1.0000
  C   C14       1.0  0.5698388970484932  0.2539230291131265  0.567787927563008  1.0000
  H   H1        1.0  0.5391789626704283  0.4646655715648036  0.7890810144992675  1.0000
  H   H2        1.0  0.3032782867688616  0.3803950502361355  0.6370325314033596  1.0000
  H   H3        1.0  0.2277595466475022  0.48794302512657217  0.9910609773813854  1.0000
  H   H4        1.0  0.3582137660679328  0.4555190862798959  0.0864921783881838  1.0000
  H   H5        1.0  0.4613851194115891  0.38422487003337924  0.9610466949685756  1.0000
  H   H6        1.0  0.3810766469586191  0.19337082726198496  0.616690228723334  1.0000
  H   H7        1.0  0.4842479846513755  0.12476786296034925  0.4897190754663008  1.0000
  H   H8        1.0  0.6146999139093516  0.2221809832633801  0.5115467025532745  1.0000
  C   C15       1.0  0.9212316475919602  0.07979352773399762  0.6912312356348735  1.0000
  C   C16       1.0  0.0007731050587931332  0.08035133129535899  0.718600049830997  1.0000
  C   C17       1.0  0.040229949218983485  0.9636901812332977  0.7321762923712529  1.0000
  C   C18       1.0  0.0007731652976392667  0.8452689743264374  0.7185998169539642  1.0000
  C   C19       1.0  0.921231659387727  0.8422785456064128  0.6912311535404825  1.0000
  C   C20       1.0  0.8818450344411973  0.9601575692376155  0.6776789658018167  1.0000
  Br  Br1       1.0  0.14842002349372296  0.966103245351184  0.7694029301216081  1.0000
  H   H9        1.0  0.891293011463184  0.4068852422838829  0.6809293110934849  1.0000
  H   H10       1.0  0.03243705522313656  0.17105687570646722  0.7294951950779003  1.0000
  H   H11       1.0  0.032437145501249987  0.7559759455098294  0.7294946380818546  1.0000
  H   H12       1.0  0.8204996033957995  0.9587892749751946  0.6565712511150241  1.0000
  H   H13       1.0  0.8912927917451888  0.5138512404730697  0.6809311442941177  1.0000
  C   C21       1.0  0.9212316709579268  0.46103602841125735  0.32348597246705046  1.0000
  C   C22       1.0  0.8663178636259409  0.38643432480747886  0.2577390476522421  1.0000
  C   C23       1.0  0.866317815725142  0.38643440596301937  0.12685690392717164  1.0000
  C   C24       1.0  0.9212316106450276  0.4610360894199157  0.058976403393771415  1.0000
  C   C25       1.0  0.9761000937076237  0.5355759785324987  0.12471917859679382  1.0000
  C   C26       1.0  0.9761000838917695  0.5355759579726034  0.2556114764868469  1.0000
  H   H14       1.0  0.9767640868731935  0.5364788257828788  0.6211168671965146  1.0000
  H   H15       1.0  0.823273829034751  0.3279579838167377  0.3073861847284496  1.0000
  H   H16       1.0  0.8232738130116062  0.3279580442291554  0.07888215424109513  1.0000
  H   H17       1.0  0.019149749305749086  0.5940600229697035  0.07511681953997451  1.0000
  H   H18       1.0  0.019149710650653073  0.5940599757709764  0.3035411839803097  1.0000
  H   H19       1.0  0.9767643263224669  0.536478383911215  0.7591878603396611  1.0000
  Zn  Zn1       1.0  0.837165503821776  0.4573684862577505  0.6846128402244276  1.0000
  Zn  Zn2       1.0  0.005290458352521954  0.4647026587309828  0.697848403523661  1.0000
  C   C27       1.0  0.9212299307188385  0.45586394894294546  0.9199528464962692  1.0000
  C   C28       1.0  0.9212278673747576  0.466208914232662  0.4625086646965533  1.0000
  C   C29       1.0  0.9212277092515564  0.6981524875582854  0.6862405668051381  1.0000
  C   C30       1.0  0.9212300314727139  0.22391881330882324  0.6962210066366716  1.0000
  O   O1        1.0  0.9850291349112573  0.47072259826270724  0.5141887774916369  1.0000
  O   O2        1.0  0.985031613524533  0.4569157527082577  0.8783178595042223  1.0000
  O   O3        1.0  0.9850289595727367  0.652566774277036  0.6895934723892552  1.0000
  O   O4        1.0  0.9850317314933996  0.2750715834785331  0.7029130661940608  1.0000
  O   O5        1.0  0.8574241733081027  0.6469995590088207  0.6795481730307922  1.0000
  O   O6        1.0  0.8574268272564285  0.45135009724716135  0.8682724933735371  1.0000
  O   O7        1.0  0.8574243486942478  0.46515689756221046  0.5041419057423937  1.0000
  O   O8        1.0  0.8574269452732481  0.2695058734920526  0.6928662883341261  1.0000
