data_image0
_chemical_formula_structural       NC9NC5H8C6NCH9C6FH5Zn2C4O8
_chemical_formula_sum              "N3 C31 H22 F1 Zn2 O8"
_cell_length_a       17.807436237873137
_cell_length_b       9.273386996610926
_cell_length_c       9.275646106892307
_cell_angle_alpha    84.8581551566088
_cell_angle_beta     89.39821068290672
_cell_angle_gamma    87.7895077601149

_space_group_name_H-M_alt    "P 1"
_space_group_IT_number       1

loop_
  _space_group_symop_operation_xyz
  'x, y, z'

loop_
  _atom_site_type_symbol
  _atom_site_label
  _atom_site_symmetry_multiplicity
  _atom_site_fract_x
  _atom_site_fract_y
  _atom_site_fract_z
  _atom_site_occupancy
  N   N1        1.0  0.6985780403116131  0.5592083144369633  0.3939981333750395  1.0000
  C   C1        1.0  0.6382005305104896  0.5202358139121046  0.3818077375343232  1.0000
  C   C2        1.0  0.563097544316895  0.4717583153377485  0.36664420863260294  1.0000
  C   C3        1.0  0.5454081122104377  0.39364662368102143  0.25007048650718655  1.0000
  C   C4        1.0  0.472487632637317  0.34645579442434515  0.23525603904394599  1.0000
  C   C5        1.0  0.4162101450220793  0.3769575259889757  0.33697990615478823  1.0000
  C   C6        1.0  0.3387138005540791  0.32693255126041687  0.32132700064578734  1.0000
  C   C7        1.0  0.2760496051457408  0.41747334401869574  0.3500124191300067  1.0000
  C   C8        1.0  0.2029880551592385  0.3700567339266545  0.3352135308441855  1.0000
  C   C9        1.0  0.1392575668722819  0.46358387471182105  0.3642986892633213  1.0000
  N   N2        1.0  0.0880312777750591  0.5387732123530073  0.3876823594196164  1.0000
  C   C10       1.0  0.1920087116803062  0.23181296115692773  0.29170150087879776  1.0000
  C   C11       1.0  0.2538156187519621  0.14125687507463391  0.2630067823985851  1.0000
  C   C12       1.0  0.3267600682973822  0.18823746879123715  0.2775812613987092  1.0000
  C   C13       1.0  0.434588050000648  0.4556159632176153  0.45379641377437907  1.0000
  C   C14       1.0  0.5075625090673727  0.5025970702517388  0.4684382058743761  1.0000
  H   H1        1.0  0.5879182607462448  0.369511475409775  0.17040941577284174  1.0000
  H   H2        1.0  0.4598760786266193  0.28778704254277976  0.14319335419945878  1.0000
  H   H3        1.0  0.283964891584022  0.525434992952801  0.3819357992289918  1.0000
  H   H4        1.0  0.135746841702675  0.19411735917180195  0.27998591916374704  1.0000
  H   H5        1.0  0.2451966656252432  0.034220771360159885  0.22974785538112852  1.0000
  H   H6        1.0  0.3737937374120084  0.11540672617387782  0.2565259138289535  1.0000
  H   H7        1.0  0.3927984282076528  0.4791367566320921  0.5348971078159901  1.0000
  H   H8        1.0  0.520694710172779  0.5626345090112126  0.5593411153694459  1.0000
  C   C15       1.0  0.8956193188765815  0.12520778337093597  0.3915119927295272  1.0000
  C   C16       1.0  0.908779791574671  0.2093831939241828  0.26079473683001897  1.0000
  C   C17       1.0  0.9148646347927052  0.1459514684109675  0.1301841585416914  1.0000
  C   C18       1.0  0.9078806918254552  0.9960528958545398  0.12695246315729025  1.0000
  C   C19       1.0  0.8960444095961527  0.9108499188794561  0.25719490370961573  1.0000
  C   C20       1.0  0.8909972244403115  0.9727621456460993  0.3901809590380185  1.0000
  N   N3        1.0  0.913329551848011  0.9276468235322902  0.9936576512565471  1.0000
  C   C21       1.0  0.9258110855133526  0.006388966897251658  0.8526066577220694  1.0000
  H   H9        1.0  0.9110349395520347  0.38401907258250767  0.6282257270003628  1.0000
  H   H10       1.0  0.9126122509207221  0.3258468590902943  0.2589618075477347  1.0000
  H   H11       1.0  0.9243156250722152  0.21510218718069485  0.03198994240275832  1.0000
  H   H12       1.0  0.8924967671302014  0.7946592563060032  0.25497548954595795  1.0000
  H   H13       1.0  0.9187592576426544  0.8361982144367309  0.7412755192064382  1.0000
  H   H14       1.0  0.9080174729445886  0.8155265452251957  0.996736798913195  1.0000
  H   H15       1.0  0.8792180079861626  0.08767449422176243  0.8282845164329942  1.0000
  H   H16       1.0  0.9802034869306924  0.0610842008170418  0.8519574887841825  1.0000
  H   H17       1.0  0.9276828968077573  0.9297644931908036  0.767128877142174  1.0000
  C   C22       1.0  0.8931961876007192  0.553506413088735  0.9670003430019434  1.0000
  C   C23       1.0  0.9619213004438373  0.5649788447777708  0.037921666842780644  1.0000
  C   C24       1.0  0.029788831256258863  0.5629497586783265  0.961372706502754  1.0000
  C   C25       1.0  0.030123944829717253  0.5492677625703912  0.8130136919786066  1.0000
  C   C26       1.0  0.9625632916134729  0.5401397477986671  0.7401375335169016  1.0000
  C   C27       1.0  0.8934203421727742  0.5444635552233357  0.8146925769349056  1.0000
  F   F1        1.0  0.0955269063999824  0.5725256359326909  0.03172023907871657  1.0000
  H   H18       1.0  0.7195820284808899  0.44540634119351874  0.08316322830544332  1.0000
  H   H19       1.0  0.9632163189662887  0.5720856876054912  0.15381601179211546  1.0000
  H   H20       1.0  0.08281784847818385  0.5471064018812952  0.7538427966800194  1.0000
  H   H21       1.0  0.9643145613383426  0.5331519592902945  0.6241876505355051  1.0000
  H   H22       1.0  0.7758486342326848  0.47765468378238385  0.5418745693851084  1.0000
  Zn  Zn1       1.0  0.8109658540046292  0.5533072456746848  0.392183890838099  1.0000
  Zn  Zn2       1.0  0.9756435131744196  0.5446623910233459  0.38950848621319145  1.0000
  C   C28       1.0  0.8934076702879687  0.5404238513757655  0.6544696514737036  1.0000
  C   C29       1.0  0.893203485273539  0.5575475102676362  0.1272228351664162  1.0000
  C   C30       1.0  0.8918655221343801  0.8126179024841542  0.3846810051637348  1.0000
  C   C31       1.0  0.894745586709831  0.28535172745712245  0.39701156206274035  1.0000
  O   O1        1.0  0.955700282203312  0.5556167662545799  0.17997967496266964  1.0000
  O   O2        1.0  0.9558974121135811  0.5357922664870007  0.5996818276962073  1.0000
  O   O3        1.0  0.9546512659200991  0.7555924333358628  0.38182559833187946  1.0000
  O   O4        1.0  0.9569463721185457  0.3358166138335088  0.3978357970033761  1.0000
  O   O5        1.0  0.8296629388640895  0.7621530258162388  0.38385658095330366  1.0000
  O   O6        1.0  0.8309090755784546  0.5423545936212193  0.6017127306366665  1.0000
  O   O7        1.0  0.8307119455334874  0.5621790616087619  0.18200884267043338  1.0000
  O   O8        1.0  0.8319580355305556  0.34237889771161667  0.39986507294015183  1.0000
