data_image0
_chemical_formula_structural       NC9NC5H8C7OH6C6H6Zn2C4O8
_chemical_formula_sum              "N2 C31 H20 O9 Zn2"
_cell_length_a       17.807436237873137
_cell_length_b       9.274078303013075
_cell_length_c       10.681121600428288
_cell_angle_alpha    85.73623897785308
_cell_angle_beta     89.39214167786866
_cell_angle_gamma    87.81002060722456

_space_group_name_H-M_alt    "P 1"
_space_group_IT_number       1

loop_
  _space_group_symop_operation_xyz
  'x, y, z'

loop_
  _atom_site_type_symbol
  _atom_site_label
  _atom_site_symmetry_multiplicity
  _atom_site_fract_x
  _atom_site_fract_y
  _atom_site_fract_z
  _atom_site_occupancy
  N   N1        1.0  0.6992613817817478  0.5413833679069244  0.6128946237514952  1.0000
  C   C1        1.0  0.6388805403166181  0.5022983866055581  0.6021574148724371  1.0000
  C   C2        1.0  0.5637734099049148  0.453680974130078  0.5888014930262782  1.0000
  C   C3        1.0  0.546101506919865  0.3743613516604132  0.4873322189092355  1.0000
  C   C4        1.0  0.4731770071470811  0.32703375282549785  0.47428446521437806  1.0000
  C   C5        1.0  0.4168779092400171  0.3586064563271354  0.562673544360786  1.0000
  C   C6        1.0  0.3393772896652906  0.3084370445604907  0.5488866532143175  1.0000
  C   C7        1.0  0.2767207385490844  0.39924304137561606  0.5741477721939889  1.0000
  C   C8        1.0  0.2036551264201599  0.35168992901911533  0.5611125930403289  1.0000
  C   C9        1.0  0.1399326781086716  0.44548519495235395  0.5867328056893923  1.0000
  N   N2        1.0  0.08871285227411159  0.5208900996240289  0.6073307383441837  1.0000
  C   C10       1.0  0.1926640357762503  0.21304428293932998  0.5227910656364194  1.0000
  C   C11       1.0  0.2544632984348877  0.12222290050413354  0.49752181450012656  1.0000
  C   C12       1.0  0.3274117959743408  0.16933779946466143  0.5103604896765839  1.0000
  C   C13       1.0  0.4352383129830887  0.4384751675997409  0.6643557212436404  1.0000
  C   C14       1.0  0.5082168024457996  0.4855912974001839  0.6772528049095983  1.0000
  H   H1        1.0  0.5886285369781561  0.3493876253705541  0.4181127454633029  1.0000
  H   H2        1.0  0.46057980272464766  0.2674096962512724  0.39416271555505134  1.0000
  H   H3        1.0  0.2846457394576  0.5074965959823872  0.602289852516465  1.0000
  H   H4        1.0  0.13639892348308877  0.17524068956430194  0.5124710808663338  1.0000
  H   H5        1.0  0.2458351368850408  0.014880234610037846  0.46822469924556165  1.0000
  H   H6        1.0  0.3744387855923926  0.09631525714536138  0.49179247341042887  1.0000
  H   H7        1.0  0.393431328453329  0.4628501655271928  0.7348218109894107  1.0000
  H   H8        1.0  0.5213351881309066  0.5465710595464504  0.7563738507481355  1.0000
  C   C15       1.0  0.8962305475661999  0.1075512555202327  0.608957695304073  1.0000
  C   C16       1.0  0.8817004242497336  0.19178013068282285  0.4961191482036871  1.0000
  C   C17       1.0  0.8606774671083087  0.1277841514010385  0.3876508880326379  1.0000
  C   C18       1.0  0.8539849493920821  0.9774926698543259  0.3919546362891413  1.0000
  C   C19       1.0  0.8693607162361705  0.8921606973589565  0.5024504579252755  1.0000
  C   C20       1.0  0.8917509353671262  0.9547107472420676  0.6112784386225778  1.0000
  C   C21       1.0  0.8451958934555707  0.219516495766918  0.27132372844903685  1.0000
  O   O1        1.0  0.8258824171307924  0.16523574660758245  0.1724443847034951  1.0000
  H   H9        1.0  0.8939191182377461  0.18430071100745482  0.9173195368657507  1.0000
  H   H10       1.0  0.8850617059994984  0.30846887005102763  0.4933701379476625  1.0000
  H   H11       1.0  0.8375468032082937  0.925506098841093  0.3095165884085995  1.0000
  H   H12       1.0  0.8654436341534336  0.7759296701722941  0.5018365229775135  1.0000
  H   H13       1.0  0.8934843542268065  0.6557292132529081  0.8183587618844665  1.0000
  H   H14       1.0  0.8503835541917159  0.3355581010201878  0.2699337226229195  1.0000
  C   C22       1.0  0.8939907514793476  0.5311309921858911  0.2423728218289145  1.0000
  C   C23       1.0  0.8406273756763363  0.45373794211244545  0.18149899439207218  1.0000
  C   C24       1.0  0.8406273282688562  0.45373803707205074  0.05061685536284011  1.0000
  C   C25       1.0  0.8939906920295072  0.5311310660029154  0.9778632585429361  1.0000
  C   C26       1.0  0.9473100246568702  0.6084599709917449  0.038736957750009626  1.0000
  C   C27       1.0  0.9473100151606021  0.6084599491305742  0.1696292564891395  1.0000
  H   H15       1.0  0.9479552660171457  0.6093966584454154  0.5350757254640235  1.0000
  H   H16       1.0  0.7987986425339686  0.3930736115541491  0.2349658952335112  1.0000
  H   H17       1.0  0.7987986264804068  0.39307368027825884  0.006461866418196571  1.0000
  H   H18       1.0  0.9891442197085041  0.6691322981801586  0.9853143363195458  1.0000
  H   H19       1.0  0.9891441821135663  0.6691322496067871  0.21373870420634566  1.0000
  H   H20       1.0  0.9479555032129873  0.6093961435506419  0.6731466950231995  1.0000
  Zn  Zn1       1.0  0.8116486827099746  0.5354656044770523  0.6112962385492839  1.0000
  Zn  Zn2       1.0  0.9763255953225662  0.5267961050229653  0.6089393865465211  1.0000
  C   C28       1.0  0.894019432713025  0.5253847238663123  0.8388241151708138  1.0000
  C   C29       1.0  0.8939566339623947  0.536878710972865  0.3814116120869284  1.0000
  C   C30       1.0  0.8925937988136268  0.7945797912787607  0.6058494980076412  1.0000
  C   C31       1.0  0.8953822208329821  0.2676819134953563  0.614386292072095  1.0000
  O   O2        1.0  0.9564392472034003  0.5355113751206193  0.4271798699415075  1.0000
  O   O3        1.0  0.956522791534681  0.5201710220566274  0.7912666977079454  1.0000
  O   O4        1.0  0.9553707316818381  0.7375494877797073  0.6031380621805571  1.0000
  O   O5        1.0  0.957591250808609  0.31813292267446824  0.6153084124052552  1.0000
  O   O6        1.0  0.8303829710277753  0.7441287897855935  0.6049272134882449  1.0000
  O   O7        1.0  0.8315350217132721  0.5267520570876185  0.7930557869913344  1.0000
  O   O8        1.0  0.8314514776978356  0.5420923598832335  0.4289674534638981  1.0000
  O   O9        1.0  0.8326034813545218  0.3247138971201984  0.6170960897889815  1.0000
