data_image0
_chemical_formula_structural       NC9NC5H8C6BrH5C7H8Zn2C4O8
_chemical_formula_sum              "N2 C31 H21 Br1 Zn2 O8"
_cell_length_a       17.807436237873137
_cell_length_b       10.302969083221269
_cell_length_c       9.274345330872308
_cell_angle_alpha    85.12370452166175
_cell_angle_beta     88.93938532988027
_cell_angle_gamma    88.39001038669201

_space_group_name_H-M_alt    "P 1"
_space_group_IT_number       1

loop_
  _space_group_symop_operation_xyz
  'x, y, z'

loop_
  _atom_site_type_symbol
  _atom_site_label
  _atom_site_symmetry_multiplicity
  _atom_site_fract_x
  _atom_site_fract_y
  _atom_site_fract_z
  _atom_site_occupancy
  N   N1        1.0  0.7138423016580339  0.39806087855017913  0.3964801681776793  1.0000
  C   C1        1.0  0.6533039149489241  0.36296454165103453  0.3842288268796401  1.0000
  C   C2        1.0  0.5780008156794993  0.3193085636863473  0.3689894885413889  1.0000
  C   C3        1.0  0.5603774430437027  0.2486986377499787  0.2522955395057722  1.0000
  C   C4        1.0  0.48726238679316736  0.20620120356677285  0.23740729582316344  1.0000
  C   C5        1.0  0.4307221293899264  0.23393652823674338  0.33917693618632505  1.0000
  C   C6        1.0  0.3530193064176753  0.18888696899223034  0.32344580139864076  1.0000
  C   C7        1.0  0.2907273219074257  0.27042372784022994  0.3522728005623281  1.0000
  C   C8        1.0  0.2174698998514812  0.22772321860944333  0.33739976117934445  1.0000
  C   C9        1.0  0.1541262031160322  0.311947757180953  0.3666311815112302  1.0000
  N   N2        1.0  0.1032108624728233  0.37965845105782137  0.3901324360806482  1.0000
  C   C10       1.0  0.2059210304902122  0.10322824198486447  0.29367155031814085  1.0000
  C   C11       1.0  0.2673556825761312  0.021677697776647742  0.26483522733699716  1.0000
  C   C12       1.0  0.3404945754832576  0.06398530114944423  0.2794831774276718  1.0000
  C   C13       1.0  0.4490359292467875  0.3050390290789535  0.45611452422141774  1.0000
  C   C14       1.0  0.5222045506529814  0.34734728940813175  0.47082978681198484  1.0000
  H   H1        1.0  0.6030920137035053  0.22675487490355217  0.172598232365482  1.0000
  H   H2        1.0  0.4747194464673556  0.15315387485027632  0.14525440410697765  1.0000
  H   H3        1.0  0.2990960550781471  0.3676422721326842  0.38436505038065905  1.0000
  H   H4        1.0  0.1495032366454329  0.06928202327350252  0.28189701839312464  1.0000
  H   H5        1.0  0.2582939551837589  0.9252879335011861  0.2314089119188032  1.0000
  H   H6        1.0  0.3872203258832107  0.9984032304037138  0.25831390060705717  1.0000
  H   H7        1.0  0.4070324690356703  0.3264342711415922  0.5372504598511993  1.0000
  H   H8        1.0  0.5352804831337008  0.40162257313408656  0.5618250767090589  1.0000
  C   C15       1.0  0.9085301382176578  0.007611956673756914  0.3933125508574986  1.0000
  C   C16       1.0  0.9863261576715909  0.0008538227771150986  0.41636637109641317  1.0000
  C   C17       1.0  0.024917171381145575  0.8805635752149792  0.42780211961413417  1.0000
  C   C18       1.0  0.9863262177606608  0.7657714622253448  0.4163660962742741  1.0000
  C   C19       1.0  0.9085301501527577  0.7700969741263012  0.3933124549839708  1.0000
  C   C20       1.0  0.870007815275575  0.8915986375679118  0.38189693576436956  1.0000
  Br  Br1       1.0  0.13073314793404656  0.8730257024193275  0.4591596745431028  1.0000
  H   H9        1.0  0.8792484707158743  0.3374573237817111  0.384634661835918  1.0000
  H   H10       1.0  0.01729528133053937  0.08864702975959182  0.4255438198624273  1.0000
  H   H11       1.0  0.017295372345462523  0.673566095799035  0.4255431682838604  1.0000
  H   H12       1.0  0.8100085323790837  0.8958726743411164  0.36411713589367367  1.0000
  H   H13       1.0  0.8792482469973508  0.44442332744472596  0.38463679806782447  1.0000
  C   C21       1.0  0.9102297803097212  0.39169327420335787  0.9694823431909296  1.0000
  C   C22       1.0  0.8654946755950987  0.4852552178208349  0.035471202693146964  1.0000
  C   C23       1.0  0.8162678041080488  0.5685887759928361  0.9542400952901517  1.0000
  C   C24       1.0  0.8100375099359242  0.5593325838743488  0.8053974576127985  1.0000
  C   C25       1.0  0.8559375855796479  0.4693658671833576  0.7373853197482059  1.0000
  C   C26       1.0  0.9068304862904756  0.38601568630852756  0.817142637737073  1.0000
  C   C27       1.0  0.75825591163216  0.6509661491627043  0.7177128138342548  1.0000
  H   H14       1.0  0.996482425436981  0.10483640425629037  0.09641268574832385  1.0000
  H   H15       1.0  0.8674077064830426  0.492131563158847  0.15125700737025483  1.0000
  H   H16       1.0  0.7823542840422377  0.6395427024687697  0.007955174149571809  1.0000
  H   H17       1.0  0.8530932505909214  0.4665402742661511  0.6210396317752025  1.0000
  H   H18       1.0  0.9676364241299472  0.19544784237945834  0.5522559524568615  1.0000
  H   H19       1.0  0.7889383111956602  0.7396564628483551  0.6780885937620074  1.0000
  H   H20       1.0  0.7089516000088588  0.679741960110684  0.784091520792296  1.0000
  H   H21       1.0  0.7371485350111817  0.6039858605607535  0.6234553126969562  1.0000
  Zn  Zn1       1.0  0.8262056228192102  0.3927468153990945  0.3946566968502081  1.0000
  Zn  Zn2       1.0  0.9908474755321401  0.3849618519313256  0.39196777274501726  1.0000
  C   C28       1.0  0.9074713668289107  0.38191690892501984  0.6569167474326973  1.0000
  C   C29       1.0  0.9095835288383037  0.39579331054294986  0.12970783445781953  1.0000
  C   C30       1.0  0.9085493455585614  0.6260097938669431  0.3875611739229887  1.0000
  C   C31       1.0  0.9085054936192961  0.15169886793623788  0.399063485832839  1.0000
  O   O1        1.0  0.9718473660071498  0.3942093031907312  0.18246054032108927  1.0000
  O   O2        1.0  0.9701668879821187  0.3775913325091875  0.6021227949214725  1.0000
  O   O3        1.0  0.9710365211509516  0.5746994538498922  0.38461627733297954  1.0000
  O   O4        1.0  0.970977677091172  0.1971011945186012  0.3999669506108585  1.0000
  O   O5        1.0  0.8460753650760245  0.5806074754699095  0.38665751989437336  1.0000
  O   O6        1.0  0.8452057322123951  0.3835009144520838  0.6041639605275622  1.0000
  O   O7        1.0  0.8468862172460431  0.4001188515123244  0.1844999706808239  1.0000
  O   O8        1.0  0.8460165278930565  0.20301073282971038  0.40200648917932313  1.0000
