data_image0
_chemical_formula_structural       NC9NC5H8C6OCH8C6ClH5Zn2C4O8
_chemical_formula_sum              "N2 C31 H21 O9 Cl1 Zn2"
_cell_length_a       17.807436237873137
_cell_length_b       9.273888216677433
_cell_length_c       10.302974078461048
_cell_angle_alpha    85.76054459610899
_cell_angle_beta     89.39214410348855
_cell_angle_gamma    87.81887448081709

_space_group_name_H-M_alt    "P 1"
_space_group_IT_number       1

loop_
  _space_group_symop_operation_xyz
  'x, y, z'

loop_
  _atom_site_type_symbol
  _atom_site_label
  _atom_site_symmetry_multiplicity
  _atom_site_fract_x
  _atom_site_fract_y
  _atom_site_fract_z
  _atom_site_occupancy
  N   N1        1.0  0.6993828256674933  0.5413577309189992  0.5625727020150502  1.0000
  C   C1        1.0  0.6389989034776087  0.5022734046708555  0.5514264808547302  1.0000
  C   C2        1.0  0.5638879409835771  0.4536568070094489  0.5375617921699338  1.0000
  C   C3        1.0  0.5462097837404505  0.3743385225469158  0.4323380223579547  1.0000
  C   C4        1.0  0.4732815535487156  0.3270117169141631  0.4187933050433279  1.0000
  C   C5        1.0  0.4169849464317409  0.3585838826295529  0.5104385654365877  1.0000
  C   C6        1.0  0.3394803724441275  0.30841531168854974  0.49612649695925315  1.0000
  C   C7        1.0  0.2768309787733629  0.3992197865867011  0.5223494487593934  1.0000
  C   C8        1.0  0.2037616184522925  0.3516674712038317  0.5088176813797256  1.0000
  C   C9        1.0  0.1400465631912894  0.4454611651708571  0.5354140482198788  1.0000
  N   N2        1.0  0.0888326808578671  0.5208648060903378  0.5567967800018727  1.0000
  C   C10       1.0  0.1927595995870861  0.21302414881113418  0.46903669751320387  1.0000
  C   C11       1.0  0.2545517035874616  0.12220428855119336  0.44280530920787076  1.0000
  C   C12       1.0  0.327503914776466  0.16931839789067005  0.45613319301237976  1.0000
  C   C13       1.0  0.4353516477144289  0.4384512466857302  0.6158832618379413  1.0000
  C   C14       1.0  0.508333850925304  0.4855665868382013  0.6292716983548308  1.0000
  H   H1        1.0  0.5887348436251671  0.3493652215658194  0.36056846535113296  1.0000
  H   H2        1.0  0.4606796477343866  0.26738866652830273  0.33570809476721  1.0000
  H   H3        1.0  0.2847645123120158  0.5074715270675356  0.5515657645912109  1.0000
  H   H4        1.0  0.1364915075714846  0.17522118900656491  0.45832350311753856  1.0000
  H   H5        1.0  0.24591508116616798  0.01486342166904886  0.4123919133538865  1.0000
  H   H6        1.0  0.3745251487118386  0.09629707924682429  0.4368557910101414  1.0000
  H   H7        1.0  0.3935465862045636  0.4628258291860541  0.6889449607418849  1.0000
  H   H8        1.0  0.5214570448228755  0.5465453202236317  0.711319993979387  1.0000
  C   C15       1.0  0.8963177994573368  0.10753287694986646  0.5583255911706104  1.0000
  C   C16       1.0  0.8787697866353636  0.19171903877925045  0.44262714542068826  1.0000
  C   C17       1.0  0.8548288091205429  0.12825417822310325  0.332116839758579  1.0000
  C   C18       1.0  0.8482968697401454  0.9776170049481853  0.33689012584060984  1.0000
  C   C19       1.0  0.8666312485876352  0.8921943604905079  0.450079651377298  1.0000
  C   C20       1.0  0.8919049251396101  0.9546782169875255  0.5610550228096649  1.0000
  O   O1        1.0  0.8377362454522593  0.2185834755149776  0.220228421974336  1.0000
  C   C21       1.0  0.812655759333561  0.1689786032691647  0.10112712685585712  1.0000
  H   H9        1.0  0.9024381470918218  0.1838953981891691  0.8777154638198503  1.0000
  H   H10       1.0  0.8819436108076956  0.30842760130478575  0.4387320025599364  1.0000
  H   H11       1.0  0.8297487032323657  0.9251560608396658  0.2532015887186847  1.0000
  H   H12       1.0  0.8627263526365951  0.7759314180325636  0.44970527110227  1.0000
  H   H13       1.0  0.8991759477872121  0.6553649617304156  0.7752301789718898  1.0000
  H   H14       1.0  0.7587306748454764  0.1136921291737587  0.11688901529662266  1.0000
  H   H15       1.0  0.8557986213492288  0.09410011806720009  0.06155911029709227  1.0000
  H   H16       1.0  0.8035164478915621  0.26314492774855913  0.02948685190213718  1.0000
  C   C22       1.0  0.8941113771495003  0.5311055668633946  0.17844781158147827  1.0000
  C   C23       1.0  0.8818200677664301  0.38197901319592065  0.18739265650102643  1.0000
  C   C24       1.0  0.8757214938643371  0.3079864769749976  0.07487405279753023  1.0000
  C   C25       1.0  0.8818201009515896  0.38197909288911047  0.9522847572939246  1.0000
  C   C26       1.0  0.8941113756205324  0.5311054925078471  0.9409328304434346  1.0000
  C   C27       1.0  0.900197129021879  0.6049418705167788  0.05466561353906596  1.0000
  Cl  Cl1       1.0  0.8603667308953687  0.12169198400358017  0.0875518318087225  1.0000
  H   H17       1.0  0.8987417345538413  0.5872789429075158  0.5023813755503055  1.0000
  H   H18       1.0  0.8769315372190627  0.32266789985588273  0.2814754597698401  1.0000
  H   H19       1.0  0.8769315898385901  0.3226678765104709  0.8662744928508159  1.0000
  H   H20       1.0  0.9096765220263598  0.7199527464633062  0.04683875613070243  1.0000
  H   H21       1.0  0.8987415916256458  0.5872789376674565  0.6093537471485373  1.0000
  Zn  Zn1       1.0  0.8117696601513127  0.5354400666662078  0.560913391590844  1.0000
  Zn  Zn2       1.0  0.9764458894243186  0.5267707125077927  0.5584667256160927  1.0000
  C   C28       1.0  0.8941396219000487  0.5253593300569446  0.7967883193749914  1.0000
  C   C29       1.0  0.8940777164544439  0.5368531744273395  0.3225919044024381  1.0000
  C   C30       1.0  0.8927351978364875  0.7945499190897687  0.5553656997898369  1.0000
  C   C31       1.0  0.8954820933528435  0.26766085535839257  0.564014588454592  1.0000
  O   O2        1.0  0.9565602231892711  0.5354858564918623  0.3700394614642919  1.0000
  O   O3        1.0  0.9566425685031757  0.5201457206247888  0.7474834222222468  1.0000
  O   O4        1.0  0.9555076358645381  0.7375205699988014  0.5525329661511695  1.0000
  O   O5        1.0  0.9576950995813187  0.31811102039456696  0.5649898210611071  1.0000
  O   O6        1.0  0.8305203937983892  0.7440997617394287  0.5543902969739329  1.0000
  O   O7        1.0  0.8316553174062652  0.5267266453615345  0.7493406894061141  1.0000
  O   O8        1.0  0.8315729724042014  0.5420667309612346  0.3718951676023774  1.0000
  O   O9        1.0  0.8327078488469157  0.32469188454721776  0.5668456245015581  1.0000
