data_image0
_chemical_formula_structural       NC8NC6H8C6OCH8C7OH6Zn2C4O8
_chemical_formula_sum              "N2 C32 H22 O10 Zn2"
_cell_length_a       17.457602349358154
_cell_length_b       9.273888216677433
_cell_length_c       9.274081674992354
_cell_angle_alpha    86.26755085646467
_cell_angle_beta     92.53340075860572
_cell_angle_gamma    91.10627454168798

_space_group_name_H-M_alt    "P 1"
_space_group_IT_number       1

loop_
  _space_group_symop_operation_xyz
  'x, y, z'

loop_
  _atom_site_type_symbol
  _atom_site_label
  _atom_site_symmetry_multiplicity
  _atom_site_fract_x
  _atom_site_fract_y
  _atom_site_fract_z
  _atom_site_occupancy
  N   N1        1.0  0.7185636966450183  0.5994262885412562  0.480834807422873  1.0000
  C   C1        1.0  0.6577940220734392  0.5483408316389453  0.4689022631388857  1.0000
  C   C2        1.0  0.5821938971871732  0.4847969597850854  0.4540687848245182  1.0000
  C   C3        1.0  0.5231695855872992  0.5301105644079926  0.5373088384591755  1.0000
  C   C4        1.0  0.4489928952314565  0.4689241826430124  0.5231642121807136  1.0000
  C   C5        1.0  0.3863491799620519  0.5167709989781561  0.6113181586437222  1.0000
  C   C6        1.0  0.3118854275863301  0.5367298191085867  0.5495050926056602  1.0000
  C   C7        1.0  0.25286182916405875  0.5818402976441743  0.6328643163926553  1.0000
  C   C8        1.0  0.1769639720423947  0.6024501026432634  0.5685950158157811  1.0000
  N   N2        1.0  0.1159550486432311  0.6190133051659834  0.5169226444413602  1.0000
  C   C9        1.0  0.2678066297083674  0.607266822949448  0.7786016656779344  1.0000
  C   C10       1.0  0.3414820412963966  0.5877435962196886  0.8408461070592168  1.0000
  C   C11       1.0  0.4004913923390701  0.5428374561103975  0.7579953688116909  1.0000
  C   C12       1.0  0.43513810756834503  0.3616582291064627  0.42418731259572096  1.0000
  C   C13       1.0  0.49414767402810766  0.31665788611165646  0.3413920305289333  1.0000
  C   C14       1.0  0.5675370388035521  0.37797437377759424  0.35614725227969557  1.0000
  H   H1        1.0  0.5348391922496963  0.6142335659208871  0.6114929586394142  1.0000
  H   H2        1.0  0.2999805656596083  0.5191174308710225  0.4362495039044527  1.0000
  H   H3        1.0  0.2225602163046874  0.6421231739309272  0.8439886244127996  1.0000
  H   H4        1.0  0.35286526394116075  0.6070815238782135  0.9536927322863125  1.0000
  H   H5        1.0  0.45690680775377385  0.5266439735981809  0.8091046522356804  1.0000
  H   H6        1.0  0.3789583472285774  0.31122701715313705  0.4122166631415358  1.0000
  H   H7        1.0  0.48298940206323693  0.2337626084061757  0.26588199199378026  1.0000
  H   H8        1.0  0.6127868795616871  0.34215754047662483  0.29132452854299906  1.0000
  C   C15       1.0  0.9195190598830365  0.1858558901235874  0.49761127352633694  1.0000
  C   C16       1.0  0.9020129480296321  0.26710600452750244  0.3672757961251014  1.0000
  C   C17       1.0  0.877965951055982  0.2000968089669426  0.24200130804283537  1.0000
  C   C18       1.0  0.8712846945232957  0.04883298249093637  0.24658666072039082  1.0000
  C   C19       1.0  0.8896018162023837  0.9664029758341129  0.37422315165836495  1.0000
  C   C20       1.0  0.9150070167556149  0.03257304589781951  0.5001592749003927  1.0000
  O   O1        1.0  0.860911418474628  0.2875741285493554  0.11594450696352188  1.0000
  C   C21       1.0  0.8357313496229732  0.2342237590852907  0.9810100225485372  1.0000
  H   H9        1.0  0.9246628974197358  0.2659618743757417  0.8527888614042678  1.0000
  H   H10       1.0  0.9052647565962647  0.3841036957325623  0.363298691242123  1.0000
  H   H11       1.0  0.85264774083255  0.9936448785233306  0.15167173139374057  1.0000
  H   H12       1.0  0.8856187834183231  0.8497339515466941  0.37338148196498167  1.0000
  H   H13       1.0  0.9216876307538063  0.7360964395125464  0.7386783960000578  1.0000
  H   H14       1.0  0.7806550694941943  0.17353345223360583  0.9926204841099695  1.0000
  H   H15       1.0  0.8798881563558166  0.16340589599036792  0.9417991187591794  1.0000
  H   H16       1.0  0.8266530987078264  0.3267500072440048  0.9004949157504054  1.0000
  C   C22       1.0  0.9185772726520862  0.6054989779970725  0.07572168968746906  1.0000
  C   C23       1.0  0.9805183666737819  0.6713123813968247  0.15009192645238278  1.0000
  C   C24       1.0  0.038060425432761  0.7475475291287392  0.07509080246036692  1.0000
  C   C25       1.0  0.033643753002923216  0.7583594829820133  0.923605533202541  1.0000
  C   C26       1.0  0.9733138604817703  0.6918032508111749  0.8481759138100791  1.0000
  C   C27       1.0  0.9159488254519786  0.6129299485308921  0.9220488132330651  1.0000
  C   C28       1.0  0.10177416713729426  0.8163189979514909  0.15655089199071015  1.0000
  O   O2        1.0  0.15418709756517868  0.886088783357307  0.09220551275730049  1.0000
  H   H17       1.0  0.7373955338214451  0.5028919377320242  0.1703098909882481  1.0000
  H   H18       1.0  0.9830805436858412  0.6660857303140351  0.2673452454753624  1.0000
  H   H19       1.0  0.07724633931003977  0.8171459156619636  0.8631550933880807  1.0000
  H   H20       1.0  0.9725629298153982  0.6992170582257937  0.7310599814951106  1.0000
  H   H21       1.0  0.7952076069510184  0.5379838894991589  0.6357587816817087  1.0000
  H   H22       1.0  0.1040584516661045  0.8072638369662315  0.273633504934081  1.0000
  Zn  Zn1       1.0  0.8332422515004541  0.6050748852829464  0.4912572862462865  1.0000
  Zn  Zn2       1.0  0.0012765058860939593  0.6133529916858087  0.5065119278060826  1.0000
  C   C29       1.0  0.9164745484352509  0.60578187226326  0.762057460124073  1.0000
  C   C30       1.0  0.9180460337473815  0.6126479154034772  0.2357120674181934  1.0000
  C   C31       1.0  0.915873789819709  0.8724748677807792  0.4939349626528111  1.0000
  C   C32       1.0  0.9186467440161697  0.34595318561734056  0.5038346312982784  1.0000
  O   O3        1.0  0.9816359024560163  0.6181823727056592  0.29519533775928775  1.0000
  O   O4        1.0  0.9804187978413241  0.6065292149296915  0.7141516916693242  1.0000
  O   O5        1.0  0.9799328133833203  0.821887152410552  0.49764080442078984  1.0000
  O   O6        1.0  0.9821218298559141  0.4028244417646014  0.5117061117874093  1.0000
  O   O7        1.0  0.8523968701888047  0.8156034323807446  0.48606309705172457  1.0000
  O   O8        1.0  0.852882845651733  0.6002472263450931  0.7025739126782011  1.0000
  O   O9        1.0  0.8540999559658458  0.6119003186721923  0.283615826105186  1.0000
  O   O10       1.0  0.8545858830820208  0.39654237836792294  0.500126708140485  1.0000
