data_image0
_chemical_formula_structural       NC8NC6H8C6SCH8C7H8Zn2C4O8
_chemical_formula_sum              "N2 C32 H24 S1 Zn2 O8"
_cell_length_a       17.457602349358154
_cell_length_b       10.302809429070853
_cell_length_c       9.274345330872308
_cell_angle_alpha    85.12370620528813
_cell_angle_beta     92.44621323531219
_cell_angle_gamma    91.68806441137123

_space_group_name_H-M_alt    "P 1"
_space_group_IT_number       1

loop_
  _space_group_symop_operation_xyz
  'x, y, z'

loop_
  _atom_site_type_symbol
  _atom_site_label
  _atom_site_symmetry_multiplicity
  _atom_site_fract_x
  _atom_site_fract_y
  _atom_site_fract_z
  _atom_site_occupancy
  N   N1        1.0  0.7286732590237113  0.4631688329658987  0.4742474886014518  1.0000
  C   C1        1.0  0.6676436222736558  0.4173411589506435  0.46245496593742574  1.0000
  C   C2        1.0  0.5917201277144233  0.36033717016431344  0.44779566747360455  1.0000
  C   C3        1.0  0.5328507687662672  0.3998984995049697  0.5309960998970125  1.0000
  C   C4        1.0  0.45836256160263794  0.3450072944305562  0.517019352625101  1.0000
  C   C5        1.0  0.3958821903269616  0.3867763583241479  0.605131766077996  1.0000
  C   C6        1.0  0.32158920736613655  0.40567692985346393  0.5431866091942914  1.0000
  C   C7        1.0  0.262719354478272  0.44505354284036014  0.6265069624861921  1.0000
  C   C8        1.0  0.186998294834708  0.4645771768476219  0.5621007503879727  1.0000
  N   N2        1.0  0.1261314787018062  0.4802677996767166  0.5103183236537308  1.0000
  C   C9        1.0  0.27764800846277565  0.46576865762901276  0.772337361789337  1.0000
  C   C10       1.0  0.3511545241116244  0.4472539090911276  0.8347130838147716  1.0000
  C   C11       1.0  0.4100106897831395  0.4080537006280458  0.7519011923620234  1.0000
  C   C12       1.0  0.44403887796373587  0.24988880157769144  0.4182504074587474  1.0000
  C   C13       1.0  0.5028946990359613  0.21060292519552593  0.33549432056325545  1.0000
  C   C14       1.0  0.5765956386781071  0.26560215277203336  0.35008198212677266  1.0000
  H   H1        1.0  0.5448916850269387  0.47454640339080867  0.6050131299437778  1.0000
  H   H2        1.0  0.3097083415023709  0.39151240979621105  0.42985224045514125  1.0000
  H   H3        1.0  0.2325193761657007  0.4961798900855685  0.8376954222000812  1.0000
  H   H4        1.0  0.3625233769126601  0.4629785395039696  0.947632814213011  1.0000
  H   H5        1.0  0.466286555456059  0.3927044758556939  0.8031187617330722  1.0000
  H   H6        1.0  0.3876026835083686  0.20465089720424712  0.40641776412672015  1.0000
  H   H7        1.0  0.49137304396175924  0.13708054773361966  0.2601461296878471  1.0000
  H   H8        1.0  0.6217219897028875  0.23431747741152043  0.2852917073375998  1.0000
  C   C15       1.0  0.9274060253760715  0.09046499676248221  0.49228950812912564  1.0000
  C   C16       1.0  0.9721680958618782  0.10092944388947944  0.3693648341976621  1.0000
  C   C17       1.0  0.9942304387636015  0.9891492855912446  0.3080189022134503  1.0000
  C   C18       1.0  0.9721679994771676  0.8657782823565809  0.36936474789038876  1.0000
  C   C19       1.0  0.9274059948387525  0.8529618568700122  0.4922894977814827  1.0000
  C   C20       1.0  0.905223962431105  0.9659513953378146  0.5531219777302698  1.0000
  S   S1        1.0  0.05156139343415855  0.0040146708642530005  0.15114586482359593  1.0000
  C   C21       1.0  0.9689400929133906  0.009578576289167584  0.024546401966626386  1.0000
  H   H9        1.0  0.9105122711348073  0.4138359051252376  0.5385805617504991  1.0000
  H   H10       1.0  0.9899471225905049  0.19565273628958857  0.32053714734981487  1.0000
  H   H11       1.0  0.98994695381011  0.7803023363151695  0.3205370195705459  1.0000
  H   H12       1.0  0.8706845331518258  0.9569732396017617  0.6479232930158445  1.0000
  H   H13       1.0  0.9105110249016904  0.5208200944642043  0.5385788616721958  1.0000
  H   H14       1.0  0.9336669440221259  0.9184733786978541  0.04058952151821238  1.0000
  H   H15       1.0  0.93366766439727  0.09470837496819762  0.04058906227886849  1.0000
  H   H16       1.0  0.9892097813899718  0.01917776182977149  0.9123145602644063  1.0000
  C   C22       1.0  0.9291409554535213  0.4747072330213806  0.06864447329496226  1.0000
  C   C23       1.0  0.8834764120611426  0.5641917946958941  0.1297598115684746  1.0000
  C   C24       1.0  0.8332267799729185  0.6430382647861037  0.04316584139232038  1.0000
  C   C25       1.0  0.8268670435408053  0.6332138671511545  0.8936444638541161  1.0000
  C   C26       1.0  0.8737207614918318  0.5474308071365572  0.8306327613749014  1.0000
  C   C27       1.0  0.9256710368313567  0.4687196183273521  0.9159344423965892  1.0000
  C   C28       1.0  0.7740096061792276  0.7201275395396578  0.8003186409385536  1.0000
  H   H17       1.0  0.0171856349895414  0.19571021280744239  0.2049713282054484  1.0000
  H   H18       1.0  0.8854291883348363  0.5712426717695485  0.245754025509201  1.0000
  H   H19       1.0  0.7986086558267099  0.7109011432377712  0.09318632154667439  1.0000
  H   H20       1.0  0.8708173317488308  0.5443458313309979  0.7139772062852696  1.0000
  H   H21       1.0  0.9877403129584187  0.28369295068950273  0.657672061487427  1.0000
  H   H22       1.0  0.8053294687539887  0.81161676905608  0.7640370198727755  1.0000
  H   H23       1.0  0.7236809284955719  0.7444083564673216  0.8613260471303721  1.0000
  H   H24       1.0  0.752463698041884  0.6712220070914561  0.7037616624101974  1.0000
  Zn  Zn1       1.0  0.8433710815726491  0.46809968488862297  0.4846650821250964  1.0000
  Zn  Zn2       1.0  0.011433593533267228  0.47532621969168853  0.4999125413115746  1.0000
  C   C29       1.0  0.9263252327962644  0.4646792112823448  0.7557783706716776  1.0000
  C   C30       1.0  0.9284812769671026  0.47874840933417895  0.22879956086319386  1.0000
  C   C31       1.0  0.9274255924992659  0.7088741647514134  0.48654024094557746  1.0000
  C   C32       1.0  0.9273808596011995  0.23455189302563761  0.4980377623005079  1.0000
  O   O1        1.0  0.9920387302649967  0.48284143329222795  0.28833540258482127  1.0000
  O   O2        1.0  0.99032333907543  0.46606998353816276  0.7078145823822932  1.0000
  O   O3        1.0  0.9912110275389435  0.6632604491610989  0.49040280972027506  1.0000
  O   O4        1.0  0.9911509848961146  0.28565097525518124  0.5057470618749207  1.0000
  O   O5        1.0  0.8636536328583456  0.6577749268605353  0.47883055635095273  1.0000
  O   O6        1.0  0.8627659447062772  0.46058602161247664  0.6962422520909597  1.0000
  O   O7        1.0  0.8644813430500765  0.47735743838374556  0.2767613378106635  1.0000
  O   O8        1.0  0.8635935972351065  0.2801669702962144  0.49417310526188385  1.0000
