data_image0
_chemical_formula_structural       NC8NC6H8C6FH5C9H8Zn2C4O8
_chemical_formula_sum              "N2 C33 H21 F1 Zn2 O8"
_cell_length_a       17.457602349358154
_cell_length_b       9.275642734913903
_cell_length_c       9.275155815604963
_cell_angle_alpha    85.9664677228866
_cell_angle_beta     93.22066324705655
_cell_angle_gamma    92.29444944329062

_space_group_name_H-M_alt    "P 1"
_space_group_IT_number       1

loop_
  _space_group_symop_operation_xyz
  'x, y, z'

loop_
  _atom_site_type_symbol
  _atom_site_label
  _atom_site_symmetry_multiplicity
  _atom_site_fract_x
  _atom_site_fract_y
  _atom_site_fract_z
  _atom_site_occupancy
  N   N1        1.0  0.726321220371658  0.6005348269683388  0.4737726273853533  1.0000
  C   C1        1.0  0.664917951953482  0.5494142658547874  0.4620361783078635  1.0000
  C   C2        1.0  0.5885297742492797  0.4858267287395843  0.44744662216090214  1.0000
  C   C3        1.0  0.530531158022254  0.5311711079733699  0.5305481538730337  1.0000
  C   C4        1.0  0.4555965358402605  0.469942680243969  0.5166384677298677  1.0000
  C   C5        1.0  0.3940375185473748  0.5178219903112513  0.6046462752985653  1.0000
  C   C6        1.0  0.3193970651350139  0.5377948579384992  0.5427241911719662  1.0000
  C   C7        1.0  0.2613977061318362  0.582935970670228  0.6259457539713504  1.0000
  C   C8        1.0  0.1853145758150973  0.6035602835460878  0.5615636649846927  1.0000
  N   N2        1.0  0.1241566164367025  0.6201351455271105  0.5098006397861163  1.0000
  C   C9        1.0  0.2775500526595976  0.6083792690491727  0.7716536494144108  1.0000
  C   C10       1.0  0.3514096714768414  0.5888422924991648  0.8340055975126641  1.0000
  C   C11       1.0  0.4094002579729721  0.5439056563038334  0.7512919604906685  1.0000
  C   C12       1.0  0.4399396012807666  0.362603386853652  0.41803728147626384  1.0000
  C   C13       1.0  0.49792972918002704  0.3175724826523385  0.3353794999991908  1.0000
  C   C14       1.0  0.5720823422988179  0.3789311027852904  0.3498995650275898  1.0000
  H   H1        1.0  0.5435921503245982  0.6153516432417985  0.6044359459692863  1.0000
  H   H2        1.0  0.3065772226200533  0.5201709129156431  0.4294830053844292  1.0000
  H   H3        1.0  0.2331012876917661  0.6432592858412212  0.8369347149675406  1.0000
  H   H4        1.0  0.3637240936620649  0.608192966736931  0.9468308003841623  1.0000
  H   H5        1.0  0.46596515010336015  0.5277007716406132  0.8024901619546569  1.0000
  H   H6        1.0  0.3831331429775242  0.3121375212191322  0.406260122792242  1.0000
  H   H7        1.0  0.4853850064091085  0.23462052290755553  0.2601602907005731  1.0000
  H   H8        1.0  0.6165276548529179  0.34308993971854695  0.2851868057660172  1.0000
  C   C15       1.0  0.9228708028949214  0.1866796698094657  0.492191881977883  1.0000
  C   C16       1.0  0.9075730479651044  0.26811731773862535  0.3606072197577814  1.0000
  C   C17       1.0  0.8995180313550899  0.20132574810356818  0.23012305113591047  1.0000
  C   C18       1.0  0.9066956196518327  0.05237268269476725  0.22892444512922316  1.0000
  C   C19       1.0  0.9205991300832767  0.9692594891841252  0.35836672921018287  1.0000
  C   C20       1.0  0.9276143669715696  0.033979635906267625  0.4913945097410972  1.0000
  F   F1        1.0  0.8856231549343572  0.281666802571483  0.10420083790132573  1.0000
  H   H9        1.0  0.0032822504405536357  0.27256014207252477  0.8213949757387609  1.0000
  H   H10       1.0  0.9036472538052763  0.3845333949244103  0.35840719396234544  1.0000
  H   H11       1.0  0.9007507657968027  0.0007502016438167836  0.12758988049935938  1.0000
  H   H12       1.0  0.9240524975576611  0.8532355826050028  0.35471847495052833  1.0000
  H   H13       1.0  0.9786923599867051  0.7409546170824027  0.714590507006958  1.0000
  C   C21       1.0  0.9238156348393861  0.6066137225827661  0.0684380264649973  1.0000
  C   C22       1.0  0.8641560166320247  0.6739518046172488  0.13074832278218929  1.0000
  C   C23       1.0  0.8096918705183969  0.75113132494146  0.044415597221050485  1.0000
  C   C24       1.0  0.8138783760826293  0.7625953942550749  0.8941966237147785  1.0000
  C   C25       1.0  0.8719888629430355  0.694406077287963  0.8300387955439987  1.0000
  C   C26       1.0  0.9266695015432316  0.6140455420775284  0.9151483374837404  1.0000
  C   C27       1.0  0.7578813666329913  0.8430689815195569  0.8054075828193392  1.0000
  C   C28       1.0  0.7109939792656248  0.9104547423617413  0.731032459570343  1.0000
  C   C29       1.0  0.6541045700914775  0.9922159945218036  0.6407793923048324  1.0000
  H   H14       1.0  0.10134464562681655  0.49899422518910486  0.1976414702721354  1.0000
  H   H15       1.0  0.8606847817777767  0.6697827429505196  0.2472312964809973  1.0000
  H   H16       1.0  0.764694666905152  0.8031242349815677  0.09507515571920666  1.0000
  H   H17       1.0  0.873445211751477  0.7012599074577099  0.7130145632320963  1.0000
  H   H18       1.0  0.0450908708912412  0.536355973850213  0.6524111818244611  1.0000
  H   H19       1.0  0.6697271828825155  0.9971296344786407  0.5261891874892322  1.0000
  H   H20       1.0  0.5966433271422168  0.9380254118408722  0.6506763691803412  1.0000
  H   H21       1.0  0.6527854507543099  0.10351892016404651  0.6770033486425775  1.0000
  Zn  Zn1       1.0  0.8411279283876779  0.6061872597083431  0.48417786115877903  1.0000
  Zn  Zn2       1.0  0.009349867732966421  0.6144709879247572  0.49940722024421946  1.0000
  C   C30       1.0  0.9260961828320762  0.6068933789634785  0.7551072481970744  1.0000
  C   C31       1.0  0.9243834609347275  0.6137667806812359  0.2284781392967279  1.0000
  C   C32       1.0  0.9266944033248395  0.8737712894879286  0.4857999616037285  1.0000
  C   C33       1.0  0.923785173594827  0.3468871346940794  0.49778549918585413  1.0000
  O   O1        1.0  0.9884133426087097  0.6193047500449826  0.2879685314749536  1.0000
  O   O2        1.0  0.98974285323858  0.6076414756456976  0.7071751732014393  1.0000
  O   O3        1.0  0.9902250683196783  0.823148734306026  0.4897075545608731  1.0000
  O   O4        1.0  0.9879310698182965  0.4037974979295249  0.5054360368140669  1.0000
  O   O5        1.0  0.8625466688964388  0.8168607468782496  0.47814903938431397  1.0000
  O   O6        1.0  0.8620644632565694  0.6013552208553017  0.6956165795244824  1.0000
  O   O7        1.0  0.860734946554116  0.6130184297693331  0.2764082045490761  1.0000
  O   O8        1.0  0.8602526740671091  0.3975111682836787  0.4938758179850249  1.0000
