data_image0
_chemical_formula_structural       NC8NC6H8C6H6C6OCH8Zn2C4O8
_chemical_formula_sum              "N2 C31 H22 O9 Zn2"
_cell_length_a       17.457602349358154
_cell_length_b       10.681118228259551
_cell_length_c       9.273891588657152
_cell_angle_alpha    86.07629789491638
_cell_angle_beta     92.54290593679647
_cell_angle_gamma    91.68806569353352

_space_group_name_H-M_alt    "P 1"
_space_group_IT_number       1

loop_
  _space_group_symop_operation_xyz
  'x, y, z'

loop_
  _atom_site_type_symbol
  _atom_site_label
  _atom_site_symmetry_multiplicity
  _atom_site_fract_x
  _atom_site_fract_y
  _atom_site_fract_z
  _atom_site_occupancy
  N   N1        1.0  0.7269502437881489  0.3891941636331231  0.4759892703755919  1.0000
  C   C1        1.0  0.6659072889126215  0.34481842743231983  0.4642102007425064  1.0000
  C   C2        1.0  0.589967238575725  0.289620603499825  0.44956762575118203  1.0000
  C   C3        1.0  0.5311918389533994  0.32898866699524  0.532673096677976  1.0000
  C   C4        1.0  0.456687846856102  0.27583870474462757  0.5187122941304436  1.0000
  C   C5        1.0  0.3943069820678937  0.31740762224503305  0.6067241397363048  1.0000
  C   C6        1.0  0.3199440444529881  0.3347394206893175  0.5448496922344797  1.0000
  C   C7        1.0  0.2611682863150754  0.37393105125955683  0.6280749471182623  1.0000
  C   C8        1.0  0.1853744927460856  0.391828113710436  0.5637422536355969  1.0000
  N   N2        1.0  0.12444919872652331  0.40621120137562494  0.5120189356757108  1.0000
  C   C9        1.0  0.2762616276397221  0.39602969038289815  0.7737388938858221  1.0000
  C   C10       1.0  0.34983858418849  0.37907630078004106  0.8360434151294114  1.0000
  C   C11       1.0  0.4086012293214927  0.34006220880019167  0.7533260417371848  1.0000
  C   C12       1.0  0.4422526213578708  0.18265519792556706  0.4200560719742774  1.0000
  C   C13       1.0  0.5010149849105049  0.1435592824455867  0.3373944394282924  1.0000
  C   C14       1.0  0.574732399396669  0.19682231069589884  0.35196545896607434  1.0000
  H   H1        1.0  0.5433163442686629  0.40206726397692605  0.6066056531181931  1.0000
  H   H2        1.0  0.3079351892874332  0.31943115415998125  0.4316446849896354  1.0000
  H   H3        1.0  0.23120680503548344  0.42631269700145547  0.8390223572307125  1.0000
  H   H4        1.0  0.3613349580644413  0.3958834010596315  0.9488342575665332  1.0000
  H   H5        1.0  0.46493493499060323  0.3260002265766999  0.8044851471364636  1.0000
  H   H6        1.0  0.3858030634784888  0.13884776013936806  0.4082369275630586  1.0000
  H   H7        1.0  0.48940823751414303  0.07154702115409206  0.26213224177328276  1.0000
  H   H8        1.0  0.6197855819170253  0.1657050405178191  0.28724913301227817  1.0000
  C   C15       1.0  0.9257033788098479  0.029952869019126416  0.4940106362410863  1.0000
  C   C16       1.0  0.9590345397994021  0.9577634710753332  0.6115023134059847  1.0000
  C   C17       1.0  0.9590345282684842  0.8268812318895269  0.6115022464609687  1.0000
  C   C18       1.0  0.9257033657471992  0.7654432729049724  0.49401069736660563  1.0000
  C   C19       1.0  0.892399796888924  0.8376231935111276  0.3766161166407618  1.0000
  C   C20       1.0  0.8923998084034016  0.9685154525613033  0.3766161761852107  1.0000
  H   H9        1.0  0.891996344312462  0.3340989204629363  0.3751953165081159  1.0000
  H   H10       1.0  0.9851611218883866  0.0023606504411937124  0.7035977944202563  1.0000
  H   H11       1.0  0.985161027662171  0.7738566176121003  0.703597760418359  1.0000
  H   H12       1.0  0.8662698083052814  0.7930713195652526  0.28450861123931404  1.0000
  H   H13       1.0  0.866269788235026  0.02149575764809808  0.28450859769977366  1.0000
  H   H14       1.0  0.891996627862285  0.4721695786570501  0.37519495229901234  1.0000
  C   C21       1.0  0.9269598909200211  0.39443518995799587  0.07084922623856604  1.0000
  C   C22       1.0  0.9897727556612598  0.45001891029139274  0.1451163474372732  1.0000
  C   C23       1.0  0.0482349437490317  0.5147676406146815  0.07060567407766039  1.0000
  C   C24       1.0  0.04409332130588384  0.5242553984398419  0.9187896615627658  1.0000
  C   C25       1.0  0.9828918658532151  0.46798239003093856  0.8433264020493416  1.0000
  C   C26       1.0  0.9244468271061086  0.40096087364258004  0.9171720810306856  1.0000
  O   O1        1.0  0.10895314202984463  0.5687198082921054  0.15131584036861434  1.0000
  C   C27       1.0  0.17211434444781082  0.6373303731381945  0.08996446494878052  1.0000
  H   H15       1.0  0.744520854879851  0.309708834271174  0.16533001478376175  1.0000
  H   H16       1.0  0.9926917024481304  0.4457778806448365  0.26231487488519334  1.0000
  H   H17       1.0  0.08827701690153966  0.5739674401836419  0.8578723810147038  1.0000
  H   H18       1.0  0.9822729809524927  0.4744101259073976  0.7261891301256118  1.0000
  H   H19       1.0  0.8027842011917281  0.33900368217480215  0.6307018144161369  1.0000
  H   H20       1.0  0.15152552206229997  0.7211938356098304  0.023702703712602302  1.0000
  H   H21       1.0  0.20409539755818518  0.5765475366244681  0.022450584562743847  1.0000
  H   H22       1.0  0.21137680383656643  0.6689446535479786  0.17836679831807079  1.0000
  Zn  Zn1       1.0  0.8416598310599857  0.39410161895869056  0.48639497368970197  1.0000
  Zn  Zn2       1.0  0.009739562173330496  0.4012935694386284  0.5016250300596747  1.0000
  C   C28       1.0  0.9249201518042718  0.3947384207333846  0.7571988035985497  1.0000
  C   C29       1.0  0.9264810764344606  0.40065842739385316  0.23082150789762967  1.0000
  C   C30       1.0  0.9257164636649589  0.6263754588021408  0.48826803082070724  1.0000
  C   C31       1.0  0.9256847069918296  0.16901988288014236  0.49975235230458104  1.0000
  O   O2        1.0  0.9901057639218827  0.4054708470389239  0.29028939400710807  1.0000
  O   O3        1.0  0.9888640923634014  0.3953835771576617  0.7092897630601269  1.0000
  O   O4        1.0  0.9895062599549896  0.582433389609387  0.49212618339767555  1.0000
  O   O5        1.0  0.9894635392968949  0.2184210402584308  0.5074528604270485  1.0000
  O   O6        1.0  0.8619357965790805  0.5769741456859336  0.4805671381174774  1.0000
  O   O7        1.0  0.8612936292120955  0.3899258372262071  0.6977306409459696  1.0000
  O   O8        1.0  0.8625353059660485  0.400013050110982  0.27872853938992015  1.0000
  O   O9        1.0  0.8618930810171198  0.21296323520630178  0.49589211384752163  1.0000
