data_image0
_chemical_formula_structural       NC9NC5H8C6H6C6FH5Zn2C4O8
_chemical_formula_sum              "N2 C30 H19 F1 Zn2 O8"
_cell_length_a       17.807436237873137
_cell_length_b       10.681118228259551
_cell_length_c       9.275646106892307
_cell_angle_alpha    84.95237390848601
_cell_angle_beta     89.39821068290672
_cell_angle_gamma    88.3900060031841

_space_group_name_H-M_alt    "P 1"
_space_group_IT_number       1

loop_
  _space_group_symop_operation_xyz
  'x, y, z'

loop_
  _atom_site_type_symbol
  _atom_site_label
  _atom_site_symmetry_multiplicity
  _atom_site_fract_x
  _atom_site_fract_y
  _atom_site_fract_z
  _atom_site_occupancy
  N   N1        1.0  0.7070810344328973  0.35304911724585275  0.39644694427302585  1.0000
  C   C1        1.0  0.6464909918099652  0.31922957758346593  0.38419534026459834  1.0000
  C   C2        1.0  0.5711236381924827  0.27716179482154235  0.36895567514315863  1.0000
  C   C3        1.0  0.5530082314110504  0.2093780647938588  0.25225927488678446  1.0000
  C   C4        1.0  0.47983040114268727  0.16842682737636028  0.2373707119792512  1.0000
  C   C5        1.0  0.4237192518170684  0.19489560681132412  0.33914248351182574  1.0000
  C   C6        1.0  0.3459501009112782  0.15148495586109156  0.3234110113981239  1.0000
  C   C7        1.0  0.2837796610976425  0.23005440587109005  0.3522386285083805  1.0000
  C   C8        1.0  0.2104595291416042  0.1889072404578569  0.33736527017871465  1.0000
  C   C9        1.0  0.1472390822140436  0.27006818226799245  0.36659731742565604  1.0000
  N   N2        1.0  0.0964228310123518  0.33531595319104834  0.3900990760167826  1.0000
  C   C10       1.0  0.1987262864073376  0.06894211906972436  0.2936361217858514  1.0000
  C   C11       1.0  0.2600393544836042  0.9903593978256219  0.2647991806607082  1.0000
  C   C12       1.0  0.3332400082247613  0.031128197137014535  0.2794474449201987  1.0000
  C   C13       1.0  0.4425261130955438  0.2631537914751103  0.45608252795232773  1.0000
  C   C14       1.0  0.5157567791573336  0.303923036232959  0.4707981061178814  1.0000
  H   H1        1.0  0.595386761213192  0.18843407625772768  0.17256029875290824  1.0000
  H   H2        1.0  0.4668989026782992  0.11751528322394633  0.14521588506647976  1.0000
  H   H3        1.0  0.2922837061114848  0.3237413189244287  0.38433156751750386  1.0000
  H   H4        1.0  0.142258847052536  0.03623064587029945  0.2818613373330445  1.0000
  H   H5        1.0  0.2508366901540766  0.8974756540029746  0.231372148345949  1.0000
  H   H6        1.0  0.3798765018173035  0.9679271667844013  0.2582777132013989  1.0000
  H   H7        1.0  0.4008647597104832  0.2835646554191442  0.5372201625199158  1.0000
  H   H8        1.0  0.5292163887200334  0.35602229889276726  0.561795307269146  1.0000
  C   C15       1.0  0.9017555324143351  0.9764323239630587  0.39327918512896765  1.0000
  C   C16       1.0  0.9347591837491379  0.899355832834402  0.5073644332434681  1.0000
  C   C17       1.0  0.934759172249622  0.768473595792618  0.507364367443131  1.0000
  C   C18       1.0  0.9017555198137935  0.7119227279167892  0.3932792477271254  1.0000
  C   C19       1.0  0.8687791889772225  0.7889856989335893  0.2792882759365163  1.0000
  C   C20       1.0  0.8687792004375933  0.9198779559687233  0.27928833432853684  1.0000
  H   H9        1.0  0.8683797049395584  0.28552055757029304  0.2779087102177493  1.0000
  H   H10       1.0  0.9606290472505599  0.9401222747476746  0.5967897895424152  1.0000
  H   H11       1.0  0.9606289548786894  0.7116182505949171  0.5967897655533032  1.0000
  H   H12       1.0  0.8429059524015444  0.7482650621940409  0.18985124337128245  1.0000
  H   H13       1.0  0.8429059327066553  0.9766895022335005  0.1898512319563861  1.0000
  H   H14       1.0  0.8683799814563269  0.4235911976971082  0.277908315278544  1.0000
  C   C21       1.0  0.9016680869457664  0.3481011237581262  0.969440198792372  1.0000
  C   C22       1.0  0.9704557636030368  0.3580566655710995  0.04037954063342464  1.0000
  C   C23       1.0  0.03831222898756392  0.3562958661126512  0.9638273935170658  1.0000
  C   C24       1.0  0.03857272909764098  0.3444229094431712  0.8154468907665766  1.0000
  C   C25       1.0  0.9709622971217374  0.3365018047294961  0.7425563963230508  1.0000
  C   C26       1.0  0.9018429271532448  0.3402539164678182  0.8171182304864901  1.0000
  F   F1        1.0  0.10410252526636365  0.36460561673795566  0.034189965464203054  1.0000
  H   H15       1.0  0.727464414373934  0.25429409008741843  0.08543330778588176  1.0000
  H   H16       1.0  0.9717895386163464  0.364223838568714  0.15628504721780634  1.0000
  H   H17       1.0  0.09125484597133049  0.34254732479848116  0.7562726009481162  1.0000
  H   H18       1.0  0.9726754596071464  0.33043794463767195  0.6265955386870861  1.0000
  H   H19       1.0  0.7839068833923082  0.2822785428821446  0.5441952964230556  1.0000
  Zn  Zn1       1.0  0.8194366672091427  0.34792829034563755  0.3946234338266206  1.0000
  Zn  Zn2       1.0  0.9840671824869982  0.34042646211241867  0.39193445204586674  1.0000
  C   C27       1.0  0.9018082251280474  0.3367483440088468  0.6568889604780483  1.0000
  C   C28       1.0  0.9016974223573783  0.3516079053215577  0.1296690376923768  1.0000
  C   C29       1.0  0.9017504613219465  0.5729527800432772  0.3875278078855964  1.0000
  C   C30       1.0  0.9017551300025096  0.11540196655140544  0.39903026815146414  1.0000
  O   O1        1.0  0.9641836901584642  0.3499324451163339  0.18242284516322793  1.0000
  O   O2        1.0  0.9642727090463505  0.3327291492757458  0.6020938625759567  1.0000
  O   O3        1.0  0.9642252221399364  0.5234672430709524  0.3845828398392319  1.0000
  O   O4        1.0  0.9642311208653105  0.15919436384126895  0.3999337605989899  1.0000
  O   O5        1.0  0.8392726726505138  0.5291603911782268  0.38662412618352304  1.0000
  O   O6        1.0  0.8393201595375807  0.33842380268018113  0.6041350719636385  1.0000
  O   O7        1.0  0.8392311403416866  0.3556270709427034  0.18446231926830237  1.0000
  O   O8        1.0  0.8392785710677841  0.16488897970893612  0.40197334291505205  1.0000
