data_image0
_chemical_formula_structural       NC9NC5H8C6NCH9C6NCOH7Zn2C4O8
_chemical_formula_sum              "N4 C32 H24 O9 Zn2"
_cell_length_a       17.807436237873137
_cell_length_b       9.273386996610926
_cell_length_c       10.29962270195845
_cell_angle_alpha    85.48537362015259
_cell_angle_beta     89.41121966804023
_cell_angle_gamma    87.7895077601149

_space_group_name_H-M_alt    "P 1"
_space_group_IT_number       1

loop_
  _space_group_symop_operation_xyz
  'x, y, z'

loop_
  _atom_site_type_symbol
  _atom_site_label
  _atom_site_symmetry_multiplicity
  _atom_site_fract_x
  _atom_site_fract_y
  _atom_site_fract_z
  _atom_site_occupancy
  N   N1        1.0  0.6987347204957636  0.5415572710703875  0.5549998295962211  1.0000
  C   C1        1.0  0.6383583999793505  0.5024507898758219  0.5440315210075497  1.0000
  C   C2        1.0  0.5632568931268142  0.45380663389477416  0.5303881359640719  1.0000
  C   C3        1.0  0.5455788338541183  0.37441371843164917  0.425500930141685  1.0000
  C   C4        1.0  0.47265979956596565  0.32706006840865887  0.41217163112050303  1.0000
  C   C5        1.0  0.4163723878562653  0.3586798138605105  0.5036976799775958  1.0000
  C   C6        1.0  0.3388775704724915  0.3084828031463813  0.48961397833448816  1.0000
  C   C7        1.0  0.2762105765389808  0.39933886799504514  0.5154236834532684  1.0000
  C   C8        1.0  0.2031504703195064  0.3517596081425409  0.5021083838018812  1.0000
  C   C9        1.0  0.1394171445090874  0.44560641442950333  0.5282777549248392  1.0000
  N   N2        1.0  0.0881885741207763  0.5210527543722288  0.5493172120155845  1.0000
  C   C10       1.0  0.1921753718374259  0.21303760882535627  0.46295843508685763  1.0000
  C   C11       1.0  0.2539850783415538  0.12216614843945095  0.43714036229673514  1.0000
  C   C12       1.0  0.3269281060131262  0.16930692550715865  0.4502537496945862  1.0000
  C   C13       1.0  0.4347388963151252  0.4386221432718276  0.6088033320469917  1.0000
  C   C14       1.0  0.5077119269409929  0.4857641734734093  0.6219772844060729  1.0000
  H   H1        1.0  0.5880967540566285  0.3494030412812772  0.353825882199442  1.0000
  H   H2        1.0  0.4600572271129577  0.2673794855470657  0.3293382309528683  1.0000
  H   H3        1.0  0.2841227485592924  0.507651376400889  0.5441467445166026  1.0000
  H   H4        1.0  0.1359146448220407  0.17521324469791022  0.452417340505066  1.0000
  H   H5        1.0  0.24536936992763259  0.01476450669210716  0.40721564290106627  1.0000
  H   H6        1.0  0.3739638292696579  0.09624477042336621  0.43130920083789914  1.0000
  H   H7        1.0  0.3929413624069941  0.4630342879962479  0.6817736810517974  1.0000
  H   H8        1.0  0.5208352596354121  0.5468006964998384  0.7037671767096347  1.0000
  C   C15       1.0  0.8957762416065108  0.10752941564237695  0.552762924564496  1.0000
  C   C16       1.0  0.908949466969558  0.19026815541672182  0.4351500743089405  1.0000
  C   C17       1.0  0.9150470524451718  0.12540093158347898  0.31763320723344135  1.0000
  C   C18       1.0  0.908063424759391  0.9754668405157952  0.3147254893296221  1.0000
  C   C19       1.0  0.896214436187715  0.8916953157788016  0.43191112447923774  1.0000
  C   C20       1.0  0.8911542770247625  0.9550691489598164  0.5515653270080962  1.0000
  N   N3        1.0  0.9135252889110884  0.9055957683362635  0.19479348307654787  1.0000
  C   C21       1.0  0.9260205833920933  0.9827876661781562  0.06788285244243042  1.0000
  H   H9        1.0  0.9111687686902025  0.36894234839864715  0.7657461056345771  1.0000
  H   H10       1.0  0.9127821051346402  0.30671167545416234  0.43350089619758236  1.0000
  H   H11       1.0  0.9245076224693801  0.19347242971004586  0.22928296181834118  1.0000
  H   H12       1.0  0.8926670102459329  0.7754802603472425  0.4299142065980517  1.0000
  H   H13       1.0  0.918882057738684  0.8223639836934323  0.8674626555319866  1.0000
  H   H14       1.0  0.908212909608624  0.793509331938042  0.19756394616318462  1.0000
  H   H15       1.0  0.8794298787124417  0.06380587677061156  0.045999005955279504  1.0000
  H   H16       1.0  0.9804130481418056  0.037475765293614405  0.06729876269424206  1.0000
  H   H17       1.0  0.9279007338264954  0.9052237340294431  0.9909742198495839  1.0000
  C   C22       1.0  0.8933945253282496  0.5311623761012072  0.17080857012538297  1.0000
  C   C23       1.0  0.8145921183437426  0.5464407077038935  0.16984823178798192  1.0000
  C   C24       1.0  0.7750168217302492  0.5564935962487503  0.05239651957125768  1.0000
  C   C25       1.0  0.8147565930675609  0.5467412650349894  0.93467317770688  1.0000
  C   C26       1.0  0.8935360078010867  0.5314362008400082  0.9335196116367759  1.0000
  C   C27       1.0  0.9324248748299376  0.5243116779037946  0.05209633733832475  1.0000
  N   N4        1.0  0.6942930223773074  0.5698924284329643  0.05544334761986458  1.0000
  C   C28       1.0  0.6497770552168919  0.6509789365610152  0.9579017962932239  1.0000
  O   O1        1.0  0.679594014643348  0.7328023653455886  0.8702322717398419  1.0000
  H   H18       1.0  0.04199062732024439  0.5008010656254263  0.37998209496025237  1.0000
  H   H19       1.0  0.7835431118672067  0.5518294814562681  0.26045132886321354  1.0000
  H   H20       1.0  0.7842580235081541  0.5480746652373139  0.8442663665671364  1.0000
  H   H21       1.0  0.9931736984419294  0.5125523887131613  0.05195920291542788  1.0000
  H   H22       1.0  0.9237117884665496  0.5233767714676516  0.6057862423107356  1.0000
  H   H23       1.0  0.6660032113006025  0.5265254226518183  0.1380204165982719  1.0000
  H   H24       1.0  0.5892221925519108  0.6451693010724293  0.9616936290483493  1.0000
  Zn  Zn1       1.0  0.8111227111847473  0.5356362625593687  0.5533674648838796  1.0000
  Zn  Zn2       1.0  0.9758006313647507  0.526962003407301  0.5509602695877649  1.0000
  C   C29       1.0  0.8935389390910555  0.5256355656169247  0.7893590765308911  1.0000
  C   C30       1.0  0.8933861918302103  0.536964426499571  0.3149687565433019  1.0000
  C   C31       1.0  0.8920231112896808  0.7948644575964297  0.5466167435408464  1.0000
  C   C32       1.0  0.8949019729064263  0.26773380370363875  0.5577111620409199  1.0000
  O   O2        1.0  0.9558778418473013  0.5356135157273589  0.36243672285131057  1.0000
  O   O3        1.0  0.9560340259704297  0.5204018256039635  0.7400637323972585  1.0000
  O   O4        1.0  0.9548091336464758  0.7378076056017882  0.5440475912600498  1.0000
  O   O5        1.0  0.9571026779034774  0.3182077489777664  0.5584527674240909  1.0000
  O   O6        1.0  0.8298206084495188  0.7443905199505707  0.5458749678621784  1.0000
  O   O7        1.0  0.8310454913021296  0.5269864737308412  0.7418910373064391  1.0000
  O   O8        1.0  0.8308893072135909  0.5421981130028231  0.36426246648488236  1.0000
  O   O9        1.0  0.8321141433410429  0.3247923359666658  0.560278608436716  1.0000
