data_image0
_chemical_formula_structural       NC8NC6H8C6NCH9C6BrH5Zn2C4O8
_chemical_formula_sum              "N3 C31 H22 Br1 Zn2 O8"
_cell_length_a       17.457602349358154
_cell_length_b       9.273386996610926
_cell_length_c       10.302972455390005
_cell_angle_alpha    85.46621647305027
_cell_angle_beta     92.87591776842113
_cell_angle_gamma    91.0935878010965

_space_group_name_H-M_alt    "P 1"
_space_group_IT_number       1

loop_
  _space_group_symop_operation_xyz
  'x, y, z'

loop_
  _atom_site_type_symbol
  _atom_site_label
  _atom_site_symmetry_multiplicity
  _atom_site_fract_x
  _atom_site_fract_y
  _atom_site_fract_z
  _atom_site_occupancy
  N   N1        1.0  0.7134396648251887  0.6134759939693628  0.6238176819366645  1.0000
  C   C1        1.0  0.6526457597334772  0.5624728304528892  0.6133047804229281  1.0000
  C   C2        1.0  0.5770155234260804  0.49903124123773024  0.600236257390313  1.0000
  C   C3        1.0  0.518238517262646  0.5436336342988624  0.6750223444849093  1.0000
  C   C4        1.0  0.4440332631649421  0.48254452362877265  0.6625634756751577  1.0000
  C   C5        1.0  0.3816514881405662  0.5296380810883579  0.74176505492989  1.0000
  C   C6        1.0  0.3069905992670102  0.5501486741114001  0.6859800248562451  1.0000
  C   C7        1.0  0.248214727776329  0.5945468047230442  0.7608744277265116  1.0000
  C   C8        1.0  0.1721119364050514  0.6157302454797011  0.7028733582616435  1.0000
  N   N2        1.0  0.11093824810571401  0.6327546467446197  0.6562406632063091  1.0000
  C   C9        1.0  0.2636060787745217  0.6187043668525187  0.8920616844954625  1.0000
  C   C10       1.0  0.33747985795037483  0.5986257700315296  0.948233343451039  1.0000
  C   C11       1.0  0.3962430110036337  0.5544276013429372  0.873796121325757  1.0000
  C   C12       1.0  0.4298978504888549  0.3761007012768567  0.5738875383386406  1.0000
  C   C13       1.0  0.4886614150220696  0.33180780103543484  0.49950071977566535  1.0000
  C   C14       1.0  0.5620812085179027  0.3930217114288739  0.5125091137145741  1.0000
  H   H1        1.0  0.530117517336131  0.6271420835852559  0.7414684348545604  1.0000
  H   H2        1.0  0.2947381731836589  0.5335233707561182  0.584021617930514  1.0000
  H   H3        1.0  0.2185541152733277  0.6530017193366202  0.9508113008921308  1.0000
  H   H4        1.0  0.3492089394703282  0.6169809659763481  0.049815244594744734  1.0000
  H   H5        1.0  0.4528213482117519  0.5377780293266572  0.9199197654924787  1.0000
  H   H6        1.0  0.3736935765586298  0.32575240588464016  0.5633372566693022  1.0000
  H   H7        1.0  0.47728931976052336  0.24953926387663716  0.43185428956841165  1.0000
  H   H8        1.0  0.6071385947101177  0.3577584968456291  0.4542723342261443  1.0000
  C   C15       1.0  0.9145512436316308  0.19957588692014272  0.6408598227649933  1.0000
  C   C16       1.0  0.9280188052363751  0.2837046627303208  0.5245728089152351  1.0000
  C   C17       1.0  0.9342645707205419  0.21950469394510974  0.40768947463774396  1.0000
  C   C18       1.0  0.9271372557024139  0.06885835573635957  0.4040993999703728  1.0000
  C   C19       1.0  0.9150213621228735  0.9838322212422529  0.5200888950289333  1.0000
  C   C20       1.0  0.9098340450992086  0.046643960013545094  0.6392103934480768  1.0000
  N   N3        1.0  0.9327346269845801  0.9995905153127613  0.2847394875862881  1.0000
  C   C21       1.0  0.9455120157210559  0.0781067155995323  0.15909128882051626  1.0000
  H   H9        1.0  0.9302213719365172  0.46248060230757937  0.8552820240528729  1.0000
  H   H10       1.0  0.931930913657895  0.4005402927642263  0.5232991307898569  1.0000
  H   H11       1.0  0.9439372584349628  0.288575937630263  0.3202926220582587  1.0000
  H   H12       1.0  0.911401046704479  0.8672555669580444  0.517745528490478  1.0000
  H   H13       1.0  0.938074717005288  0.9166516726698404  0.9577212512494857  1.0000
  H   H14       1.0  0.9273120030870815  0.8869603962556073  0.28698932174605574  1.0000
  H   H15       1.0  0.8979631830593464  0.15437416653076208  0.13265593607062542  1.0000
  H   H16       1.0  0.0010279960777335173  0.13835098049596928  0.1638290862928613  1.0000
  H   H17       1.0  0.947445554666372  0.0007638990972331783  0.08239079087727563  1.0000
  C   C22       1.0  0.9121926284848655  0.6231099211721467  0.2587925428077773  1.0000
  C   C23       1.0  0.9353675968678844  0.4782657797579928  0.26985179923385405  1.0000
  C   C24       1.0  0.9468636743671007  0.4064152672853931  0.1583999557318101  1.0000
  C   C25       1.0  0.9353677264556614  0.4782657297339752  0.03476941928673294  1.0000
  C   C26       1.0  0.9121926647522371  0.6231099268792029  0.021277627834620283  1.0000
  C   C27       1.0  0.9007170538766696  0.6948325080734532  0.13395661105363277  1.0000
  Br  Br1       1.0  0.9783854669506723  0.20940219098320734  0.17509682990465558  1.0000
  H   H18       1.0  0.9034700954765263  0.677628165089819  0.5819315119930257  1.0000
  H   H19       1.0  0.9445930132946924  0.42060597205211225  0.3647377506223959  1.0000
  H   H20       1.0  0.9445933161010587  0.4206060350683538  0.9496568726200882  1.0000
  H   H21       1.0  0.8828435900519517  0.8065418622618483  0.12448922849571531  1.0000
  H   H22       1.0  0.9034690205311487  0.6776275712499435  0.6888978011342974  1.0000
  Zn  Zn1       1.0  0.8281491910898975  0.6190355289090284  0.6331817574717369  1.0000
  Zn  Zn2       1.0  0.996228773444476  0.6271832865801701  0.6468872397024203  1.0000
  C   C28       1.0  0.9122229520996351  0.6173640876632309  0.8771626856033774  1.0000
  C   C29       1.0  0.9121568377243185  0.6288566366126407  0.4029065851148035  1.0000
  C   C30       1.0  0.910721760613475  0.8865298864146642  0.6343483718434291  1.0000
  C   C31       1.0  0.9136579815065492  0.35968910224461204  0.6457209667879837  1.0000
  O   O1        1.0  0.9759301866080466  0.6338710261424103  0.4564737455434722  1.0000
  O   O2        1.0  0.9760181231854201  0.6185325696221775  0.8339972974610799  1.0000
  O   O3        1.0  0.9748050322185745  0.8358873144980639  0.637922948112998  1.0000
  O   O4        1.0  0.9771432201632537  0.41651628880375124  0.6525479928523066  1.0000
  O   O5        1.0  0.8472346870137986  0.8297025239065874  0.62752099963801  1.0000
  O   O6        1.0  0.8484477683272522  0.6123495118684361  0.8235952763890197  1.0000
  O   O7        1.0  0.8483598320806849  0.6276879181308554  0.446070163690105  1.0000
  O   O8        1.0  0.8495728656902093  0.4103331704761093  0.6421445083543471  1.0000
