data_image0
_chemical_formula_structural       NC9NC5H8C6ClH5C6BrH5Zn2C4O8
_chemical_formula_sum              "N2 C30 H18 Cl1 Br1 Zn2 O8"
_cell_length_a       17.807436237873137
_cell_length_b       10.30297070629231
_cell_length_c       10.302972455390005
_cell_angle_alpha    85.56070500176591
_cell_angle_beta     89.39215201277248
_cell_angle_gamma    88.39001192287228

_space_group_name_H-M_alt    "P 1"
_space_group_IT_number       1

loop_
  _space_group_symop_operation_xyz
  'x, y, z'

loop_
  _atom_site_type_symbol
  _atom_site_label
  _atom_site_symmetry_multiplicity
  _atom_site_fract_x
  _atom_site_fract_y
  _atom_site_fract_z
  _atom_site_occupancy
  N   N1        1.0  0.7074118293000986  0.3873202900140178  0.5576064155429656  1.0000
  C   C1        1.0  0.6468243112986019  0.35214189973481114  0.5465861177113822  1.0000
  C   C2        1.0  0.5714600980360678  0.3083838562745791  0.5328780637801296  1.0000
  C   C3        1.0  0.5533687540643055  0.2369923278880084  0.4279098320940369  1.0000
  C   C4        1.0  0.4801939918103296  0.19439517964054365  0.41451759402604504  1.0000
  C   C5        1.0  0.424061855104888  0.22281215119735998  0.5060611465115026  1.0000
  C   C6        1.0  0.346295945898955  0.17765723264713285  0.49191071299193756  1.0000
  C   C7        1.0  0.2841195656723661  0.2593870605493602  0.5178411076236786  1.0000
  C   C8        1.0  0.2108024985827964  0.21658693912677895  0.5044625460579575  1.0000
  C   C9        1.0  0.1475760279952934  0.3010072551058134  0.530756724880838  1.0000
  N   N2        1.0  0.0967549339371723  0.3688753486115144  0.5518965184037075  1.0000
  C   C10       1.0  0.1990782669227815  0.0917990926019363  0.4651282483419057  1.0000
  C   C11       1.0  0.2603972773341255  0.010055416891026292  0.43918946677348925  1.0000
  C   C12       1.0  0.3335949126078359  0.05246112487715204  0.4523655565805971  1.0000
  C   C13       1.0  0.4428446033549414  0.2946978862970784  0.6112485357517179  1.0000
  C   C14       1.0  0.5160722370667463  0.3371047020976192  0.6244851743148077  1.0000
  H   H1        1.0  0.5957637193798716  0.2145147573435051  0.35622072524226467  1.0000
  H   H2        1.0  0.46728149584342416  0.1407306211532744  0.3316244695336321  1.0000
  H   H3        1.0  0.292616997785695  0.3568205418497079  0.546708653742179  1.0000
  H   H4        1.0  0.1426132539208571  0.05777401397856763  0.4545368489313446  1.0000
  H   H5        1.0  0.2512015010934224  0.9134417799157742  0.4091219057268276  1.0000
  H   H6        1.0  0.3802357682356712  0.9867372736962091  0.4333234175984715  1.0000
  H   H7        1.0  0.4011665177198211  0.3166365720630848  0.6842317136946052  1.0000
  H   H8        1.0  0.5295130829501884  0.39198946178688887  0.7063370161513005  1.0000
  C   C15       1.0  0.902086957167876  0.996850217405585  0.5547570356871041  1.0000
  C   C16       1.0  0.9796624036348629  0.9900321035780305  0.578625307553511  1.0000
  C   C17       1.0  0.01815326965044539  0.8696922935650142  0.5904680162497722  1.0000
  C   C18       1.0  0.9796624030350879  0.7549241349364314  0.5786252465050983  1.0000
  C   C19       1.0  0.9020869651854636  0.7593351588385723  0.5547571098876547  1.0000
  C   C20       1.0  0.8636773872255014  0.8808726500656602  0.5429392924999779  1.0000
  Cl  Cl1       1.0  0.1150634851042609  0.8626783618793468  0.620285085049473  1.0000
  H   H9        1.0  0.8728656451690029  0.3267215997926509  0.5457655488683661  1.0000
  H   H10       1.0  0.010516043999737823  0.07784563851790338  0.5881181878834969  1.0000
  H   H11       1.0  0.010516014289877695  0.6626444470971206  0.5881180950442195  1.0000
  H   H12       1.0  0.8038488487463548  0.8852026591537111  0.524531324092288  1.0000
  H   H13       1.0  0.8728656415052969  0.43369363329046107  0.54576579403538  1.0000
  C   C21       1.0  0.9020869457638441  0.37809266152660537  0.17351449841752808  1.0000
  C   C22       1.0  0.9239904491846628  0.24569785889060802  0.18214432868823294  1.0000
  C   C23       1.0  0.934855810553983  0.18002288663243693  0.06948735462232225  1.0000
  C   C24       1.0  0.9239905758066249  0.24569780221932702  0.9470619362299506  1.0000
  C   C25       1.0  0.9020869813086471  0.37809266339559167  0.9359995799707468  1.0000
  C   C26       1.0  0.8912409636095695  0.4436507002622514  0.04988154822228741  1.0000
  Br  Br1       1.0  0.9646481945116533  0.9999430790313131  0.0828798056270239  1.0000
  H   H14       1.0  0.8938429753062215  0.4279250365303924  0.4975678516575497  1.0000
  H   H15       1.0  0.9327097210240622  0.1929939159957137  0.27606318095580495  1.0000
  H   H16       1.0  0.9327100178812977  0.1929939454247367  0.8609822739729505  1.0000
  H   H17       1.0  0.8743481031308414  0.545758650749637  0.042287836067433915  1.0000
  H   H18       1.0  0.8938419194615191  0.4279245990683753  0.6045342431552347  1.0000
  Zn  Zn1       1.0  0.8197678378318074  0.38199401417574386  0.5559661708727197  1.0000
  Zn  Zn2       1.0  0.9843989072086007  0.3741910416478622  0.553547436147906  1.0000
  C   C27       1.0  0.9020853064037181  0.37292072353108874  0.7918736131558088  1.0000
  C   C28       1.0  0.9020832364029076  0.38326588518195726  0.31764009487658296  1.0000
  C   C29       1.0  0.9020831093131121  0.6152094275506224  0.5495836573785193  1.0000
  C   C30       1.0  0.902085377316392  0.14097562401943842  0.5599301206948504  1.0000
  O   O1        1.0  0.964558624353778  0.38203521495309767  0.36509206442889885  1.0000
  O   O2        1.0  0.964561090806138  0.36822813874932847  0.7425855061908728  1.0000
  O   O3        1.0  0.9645584744128755  0.563879371322227  0.5469346650329976  1.0000
  O   O4        1.0  0.9645611845696027  0.18638399433008623  0.5607428090697211  1.0000
  O   O5        1.0  0.8396055042903011  0.5698010641577049  0.548770798769471  1.0000
  O   O6        1.0  0.8396081206801813  0.37415139139197673  0.7444215707049353  1.0000
  O   O7        1.0  0.8396056542776901  0.38795842235179334  0.36692656805889867  1.0000
  O   O8        1.0  0.8396082144904484  0.19230719244308014  0.5625774100353409  1.0000
