data_image0
_chemical_formula_structural       NC8NC6H8C6ClH5C6OCH8Zn2C4O8
_chemical_formula_sum              "N2 C31 H21 Cl1 O9 Zn2"
_cell_length_a       17.457602349358154
_cell_length_b       10.30297070629231
_cell_length_c       9.273891588657152
_cell_angle_alpha    86.0762958320409
_cell_angle_beta     92.54290593679647
_cell_angle_gamma    91.68807172504815

_space_group_name_H-M_alt    "P 1"
_space_group_IT_number       1

loop_
  _space_group_symop_operation_xyz
  'x, y, z'

loop_
  _atom_site_type_symbol
  _atom_site_label
  _atom_site_symmetry_multiplicity
  _atom_site_fract_x
  _atom_site_fract_y
  _atom_site_fract_z
  _atom_site_occupancy
  N   N1        1.0  0.7269503321605899  0.44018143935019083  0.4759892197128357  1.0000
  C   C1        1.0  0.6659073744621369  0.3941769906511283  0.4642101516980963  1.0000
  C   C2        1.0  0.5899673206138759  0.33695325360907336  0.4495675787197908  1.0000
  C   C3        1.0  0.5311919234959173  0.3777662341365602  0.5326730482108641  1.0000
  C   C4        1.0  0.45668792801752905  0.32266552097540835  0.5187122476016668  1.0000
  C   C5        1.0  0.3943070658736931  0.36576013294915444  0.606724091691544  1.0000
  C   C6        1.0  0.3199441293613354  0.3837280564284311  0.5448496435576429  1.0000
  C   C7        1.0  0.2611683737165661  0.4243581284534341  0.6280748970121395  1.0000
  C   C8        1.0  0.1853745812860833  0.44291206269487904  0.5637422028767825  1.0000
  N   N2        1.0  0.1244492881814891  0.4578230495376241  0.5120188843923574  1.0000
  C   C9        1.0  0.2762617164469996  0.44726784887516446  0.7737388429737797  1.0000
  C   C10       1.0  0.3498386719172916  0.4296922228904909  0.8360433648356453  1.0000
  C   C11       1.0  0.4086013145684449  0.3892462056141621  0.7533259928662301  1.0000
  C   C12       1.0  0.44225269659150596  0.2260619212140902  0.42005602884382576  1.0000
  C   C13       1.0  0.5010150576570854  0.18553107728841578  0.337394397723636  1.0000
  C   C14       1.0  0.5747324755315333  0.2407490062847999  0.35196541531896  1.0000
  H   H1        1.0  0.5433164334600156  0.45352701815218577  0.6066056019859654  1.0000
  H   H2        1.0  0.3079352732219578  0.36785793409325107  0.4316446368710778  1.0000
  H   H3        1.0  0.23120689576918932  0.4786623257607461  0.8390223052142745  1.0000
  H   H4        1.0  0.3613350468624127  0.44711619032831873  0.9488342066598263  1.0000
  H   H5        1.0  0.46493501934301423  0.3746681096727129  0.8044850987783381  1.0000
  H   H6        1.0  0.3858031359253498  0.18064662905638817  0.4082368860302279  1.0000
  H   H7        1.0  0.48940830567972293  0.11087576643797648  0.2621322026948536  1.0000
  H   H8        1.0  0.61978565607239  0.20848964605504317  0.2872490904999845  1.0000
  C   C15       1.0  0.9257034443294505  0.06775499364864812  0.4940105986795613  1.0000
  C   C16       1.0  0.004821502877095929  0.06834887272532364  0.5289448313162022  1.0000
  C   C17       1.0  0.04407777213323927  0.9516866949569889  0.5462781644132773  1.0000
  C   C18       1.0  0.004821502465996774  0.8332409034863977  0.5289447634900473  1.0000
  C   C19       1.0  0.9257034522700412  0.8302399364841447  0.4940106819111627  1.0000
  C   C20       1.0  0.8865300879010425  0.9481075611248639  0.4767138225665186  1.0000
  Cl  Cl1       1.0  0.1429150779074544  0.953932107566298  0.5899192449035875  1.0000
  H   H9        1.0  0.8959010597733004  0.39483440167609585  0.48085067833306594  1.0000
  H   H10       1.0  0.03628867792368795  0.15911033638688332  0.5428389009237384  1.0000
  H   H11       1.0  0.03628864789890085  0.7439091413848338  0.5428387946435214  1.0000
  H   H12       1.0  0.8255118402801768  0.9467212160639759  0.44977144578810657  1.0000
  H   H13       1.0  0.8959010552249729  0.5018064370091243  0.4808509500583329  1.0000
  C   C21       1.0  0.9269599796258655  0.44561482586578594  0.07084917538467428  1.0000
  C   C22       1.0  0.9897728479030168  0.503238622776101  0.1451162945562896  1.0000
  C   C23       1.0  0.04823504010972601  0.5703638109421796  0.07060561883534389  1.0000
  C   C24       1.0  0.04409341827013402  0.5801997957732055  0.9187896059744389  1.0000
  C   C25       1.0  0.9828919592377041  0.52186141200477  0.8433263485132452  1.0000
  C   C26       1.0  0.9244469162270794  0.4523800202263999  0.9171720299388064  1.0000
  O   O1        1.0  0.10895324182266108  0.6262961726924805  0.15131578315870686  1.0000
  C   C27       1.0  0.1721144486052324  0.6974249354107536  0.08996440523670302  1.0000
  H   H14       1.0  0.7445209381958984  0.35777877812079373  0.165329967019769  1.0000
  H   H15       1.0  0.992691794420098  0.4988419355882343  0.26231482215887625  1.0000
  H   H16       1.0  0.0882771170281802  0.6317364072173424  0.8578723236134196  1.0000
  H   H17       1.0  0.982273074745877  0.5285250636012548  0.7261890763551007  1.0000
  H   H18       1.0  0.8027842863713431  0.3881488281280976  0.6307017655837859  1.0000
  H   H19       1.0  0.15152563155462606  0.7843664193682032  0.023702640942094177  1.0000
  H   H20       1.0  0.20409549784895642  0.6344112003478386  0.022450527067366277  1.0000
  H   H21       1.0  0.21137691000510417  0.7301995475250957  0.1783667374530462  1.0000
  Zn  Zn1       1.0  0.8416599197446104  0.4452690118863716  0.4863949228479747  1.0000
  Zn  Zn2       1.0  0.00973965131546528  0.4527249268801721  0.501624978955663  1.0000
  C   C28       1.0  0.924920240529406  0.4459291860509831  0.7571987527335986  1.0000
  C   C29       1.0  0.9264811655361913  0.45206647336216665  0.23082145681678123  1.0000
  C   C30       1.0  0.9257165671254926  0.6860679453589136  0.48826797150814616  1.0000
  C   C31       1.0  0.9256847813580654  0.21192615231857737  0.4997523096713974  1.0000
  O   O2        1.0  0.9901058533297515  0.4570555221450019  0.2902893427507549  1.0000
  O   O3        1.0  0.9888641811295771  0.44659802150397065  0.7092897121716475  1.0000
  O   O4        1.0  0.9895063606201846  0.640513080448929  0.49212612568764524  1.0000
  O   O5        1.0  0.9894636168057446  0.26314046907942545  0.5074528159922465  1.0000
  O   O6        1.0  0.8619358968969904  0.634853467144133  0.4805670806065414  1.0000
  O   O7        1.0  0.8612937176310814  0.44093996739184815  0.6977305902565301  1.0000
  O   O8        1.0  0.8625353950267242  0.4513974089444628  0.2787284883326082  1.0000
  O   O9        1.0  0.8618931581787757  0.25748234745651954  0.4958920696117606  1.0000
