data_image0
_chemical_formula_structural       NC9NC5H8C6SCH8C8H10Zn2C4O8
_chemical_formula_sum              "N2 C33 H26 S1 Zn2 O8"
_cell_length_a       17.807436237873137
_cell_length_b       10.302809429070853
_cell_length_c       9.275657083861812
_cell_angle_alpha    85.85419947876746
_cell_angle_beta     88.90332225934054
_cell_angle_gamma    88.39000425637651

_space_group_name_H-M_alt    "P 1"
_space_group_IT_number       1

loop_
  _space_group_symop_operation_xyz
  'x, y, z'

loop_
  _atom_site_type_symbol
  _atom_site_label
  _atom_site_symmetry_multiplicity
  _atom_site_fract_x
  _atom_site_fract_y
  _atom_site_fract_z
  _atom_site_occupancy
  N   N1        1.0  0.7146525027784371  0.37959381318046104  0.3982929244310087  1.0000
  C   C1        1.0  0.6541203090822696  0.34435567330423034  0.3860554315124036  1.0000
  C   C2        1.0  0.5788249132485117  0.3005233078336951  0.3708333190545283  1.0000
  C   C3        1.0  0.5612605126111004  0.2285667957017763  0.25427128488628603  1.0000
  C   C4        1.0  0.4881529823095245  0.18589704012025687  0.2393998702273321  1.0000
  C   C5        1.0  0.4315612971046358  0.2148062079098798  0.341054465503567  1.0000
  C   C6        1.0  0.3538664261685975  0.16957456910500746  0.3253411125019472  1.0000
  C   C7        1.0  0.2915598697695475  0.2514449694732801  0.3541355268526012  1.0000
  C   C8        1.0  0.2183099659921884  0.20857231100410978  0.33927929929845013  1.0000
  C   C9        1.0  0.1549514928391851  0.2931351957614994  0.36847767773034135  1.0000
  N   N2        1.0  0.1040242723646084  0.36111791057225173  0.39195236752466545  1.0000
  C   C10       1.0  0.20678320105033432  0.08357121479780427  0.2956005169177265  1.0000
  C   C11       1.0  0.2682324297374084  0.0016869213512116232  0.2667967892892993  1.0000
  C   C12       1.0  0.3413639181321722  0.044164072573324775  0.2814281819909479  1.0000
  C   C13       1.0  0.44981600181717657  0.28725811176110216  0.4578598632653159  1.0000
  C   C14       1.0  0.5229771846967198  0.32973669606908795  0.4725584923730948  1.0000
  H   H1        1.0  0.604015357155202  0.2057037755179003  0.17466407124348193  1.0000
  H   H2        1.0  0.47565661184034574  0.1317863580212022  0.14735115141440347  1.0000
  H   H3        1.0  0.2999123800841137  0.3490350469458867  0.3861915011809638  1.0000
  H   H4        1.0  0.15037135920635  0.04948870858856558  0.2838392944002388  1.0000
  H   H5        1.0  0.2591875992775515  0.9049102548401747  0.23340825749157923  1.0000
  H   H6        1.0  0.3881003698396642  0.9783369017986329  0.26028283382217143  1.0000
  H   H7        1.0  0.4077715407904015  0.30958919017950204  0.5389040790731283  1.0000
  H   H8        1.0  0.5360071322019209  0.38506200495178056  0.5634509180268044  1.0000
  C   C15       1.0  0.9093419642942292  0.9891023176207421  0.39512887442694766  1.0000
  C   C16       1.0  0.9532575005130595  0.9940961288350356  0.26757135326188575  1.0000
  C   C17       1.0  0.9749029867742645  0.8796108530272593  0.2039428398940526  1.0000
  C   C18       1.0  0.9532574061285287  0.758944975034852  0.26757127732715813  1.0000
  C   C19       1.0  0.909341934382033  0.7515991803741838  0.39512886734639796  1.0000
  C   C20       1.0  0.8875794477160847  0.867298754348215  0.45825726847309434  1.0000
  S   S1        1.0  0.031149419083190688  0.8874760347566195  0.04113544120456192  1.0000
  C   C21       1.0  0.9502692677173891  0.8990617757276176  0.9234868403936574  1.0000
  H   H9        1.0  0.8927677541213549  0.31453673238411306  0.44316853696029646  1.0000
  H   H10       1.0  0.9707002943381565  0.08664650386546557  0.21690355161619124  1.0000
  H   H11       1.0  0.970700129048499  0.6712961177011726  0.21690344197400813  1.0000
  H   H12       1.0  0.8536932488287723  0.8625412871544432  0.5566334505027144  1.0000
  H   H13       1.0  0.8927665340453041  0.421521014970148  0.4431669716570783  1.0000
  H   H14       1.0  0.9157040413722148  0.8113356173545607  0.9432720766437934  1.0000
  H   H15       1.0  0.9157047473561221  0.9875705430982916  0.9432715411288504  1.0000
  H   H16       1.0  0.9701842032392222  0.9055314533113734  0.8092210453893625  1.0000
  C   C22       1.0  0.9112557516993501  0.3683027859882422  0.9717778012575944  1.0000
  C   C23       1.0  0.9501751264257805  0.4654241995127566  0.036084410951261914  1.0000
  C   C24       1.0  0.9824603430375932  0.5684171093732842  0.9518200841447815  1.0000
  C   C25       1.0  0.9769412683429682  0.5733499543412164  0.8012710695513752  1.0000
  C   C26       1.0  0.9396446515340448  0.4767328187945059  0.73548543104955  1.0000
  C   C27       1.0  0.9074281388765816  0.37239868439793544  0.8184799160686937  1.0000
  C   C28       1.0  0.024853321272417794  0.6705168870804319  0.022329647403872777  1.0000
  C   C29       1.0  0.1073796479749598  0.6295540323635849  0.038830409525721254  1.0000
  H   H17       1.0  0.877530884771472  0.1627861871990708  0.27015404792293785  1.0000
  H   H18       1.0  0.9540597952343034  0.4628328792357681  0.1527461793182716  1.0000
  H   H19       1.0  0.0022705735046051334  0.6514990099234432  0.7344723693009159  1.0000
  H   H20       1.0  0.9377112199175028  0.48188407599136673  0.6185425941737313  1.0000
  H   H21       1.0  0.8187185560764549  0.22697901663815112  0.5520900784819993  1.0000
  H   H22       1.0  0.020738662259714102  0.7649641020554172  0.9565563326667688  1.0000
  H   H23       1.0  0.9998639960831114  0.6864064445115721  0.1306130657715685  1.0000
  H   H24       1.0  0.11272825685640009  0.536941586166273  0.10749150711585553  1.0000
  H   H25       1.0  0.13381971679989335  0.6163506553151326  0.9312250487520859  1.0000
  H   H26       1.0  0.13759396328062445  0.7060552547544554  0.09090500180269401  1.0000
  Zn  Zn1       1.0  0.8270167457040283  0.3742586428856469  0.39647151427250127  1.0000
  Zn  Zn2       1.0  0.9916599576644006  0.36644255523267866  0.3937856296064659  1.0000
  C   C30       1.0  0.9081499655492837  0.36645245106838487  0.6584350911664725  1.0000
  C   C31       1.0  0.9105285350781678  0.37425030050631825  0.1318221648808955  1.0000
  C   C32       1.0  0.9093640394241158  0.60744342418495  0.3893840206037775  1.0000
  C   C33       1.0  0.9093144046747289  0.1332577705986191  0.40087331322082354  1.0000
  O   O1        1.0  0.9727657154307995  0.3732745121538761  0.18451523610347764  1.0000
  O   O2        1.0  0.9708731753660691  0.3614950283108376  0.6037030806295616  1.0000
  O   O3        1.0  0.9718527063204939  0.5560983340861687  0.3864424513096889  1.0000
  O   O4        1.0  0.971786128783449  0.1786712178101506  0.4017757582459238  1.0000
  O   O5        1.0  0.8468905184003661  0.5620299829767985  0.38848138654202113  1.0000
  O   O6        1.0  0.8459109877899343  0.3674282366612245  0.6057419389936383  1.0000
  O   O7        1.0  0.8478035357401357  0.3792076668748887  0.18655236118281726  1.0000
  O   O8        1.0  0.8468239486010972  0.18460436376818068  0.4038129914116677  1.0000
