data_image0
_chemical_formula_structural       NC8NH4C6NH7C10H6Zn2C4O8
_chemical_formula_sum              "N3 C28 H17 Zn2 O8"
_cell_length_a       11.048855714531884
_cell_length_b       9.274771166103582
_cell_length_c       9.275153671780863
_cell_angle_alpha    85.60840141486051
_cell_angle_beta     89.40940558656271
_cell_angle_gamma    90.59705445283097

_space_group_name_H-M_alt    "P 1"
_space_group_IT_number       1

loop_
  _space_group_symop_operation_xyz
  'x, y, z'

loop_
  _atom_site_type_symbol
  _atom_site_label
  _atom_site_symmetry_multiplicity
  _atom_site_fract_x
  _atom_site_fract_y
  _atom_site_fract_z
  _atom_site_occupancy
  N   N1        1.0  0.16724116572475792  0.5745807643733615  0.40661991593092206  1.0000
  C   C1        1.0  0.11295565080134386  0.5163991854239429  0.3217084038478055  1.0000
  C   C2        1.0  0.04522406470506881  0.44380516129315906  0.21576280318761132  1.0000
  C   C3        1.0  0.917507306769663  0.4438049709267973  0.21576290529472475  1.0000
  C   C4        1.0  0.8550154391579603  0.3720425389865727  0.11103124422848598  1.0000
  C   C5        1.0  0.9187173982622515  0.3008477481382546  0.007127930186741075  1.0000
  C   C6        1.0  0.04512360952087203  0.30084763804156367  0.007127953060128481  1.0000
  C   C7        1.0  0.10827297907667457  0.3720426373785504  0.11103121632256706  1.0000
  C   C8        1.0  0.8492122304933258  0.5163992603441129  0.3217083905736507  1.0000
  N   N2        1.0  0.7944750519892971  0.5745808071302354  0.40661994465431595  1.0000
  H   H1        1.0  0.7569566916381993  0.3711439051044846  0.10971910994443546  1.0000
  H   H2        1.0  0.8700338635001666  0.24562740743466163  0.9265387168322762  1.0000
  H   H3        1.0  0.09423590569160623  0.24562751688595585  0.9265387160231762  1.0000
  H   H4        1.0  0.20633870059536763  0.37114385674911743  0.10971938524978841  1.0000
  C   C9        1.0  0.47714138320349164  0.15098622871224524  0.40740586573040516  1.0000
  C   C10       1.0  0.4504035444647743  0.23396484315413058  0.27846133785019944  1.0000
  C   C11       1.0  0.4349728794507984  0.16858322605299603  0.14869871323980347  1.0000
  C   C12       1.0  0.446351613816215  0.01884311512653759  0.14694073370306482  1.0000
  C   C13       1.0  0.47086668639783996  0.934540537450795  0.2741139407071491  1.0000
  C   C14       1.0  0.48458626253345544  0.9981642751797982  0.40584650945649137  1.0000
  N   N3        1.0  0.40899087045212507  0.2546577100926466  0.018337010318955738  1.0000
  H   H5        1.0  0.6106274571411343  0.2314544921696553  0.7229727978361187  1.0000
  H   H6        1.0  0.44430584036064685  0.35055613304369726  0.2779074578165078  1.0000
  H   H7        1.0  0.4350521035960919  0.9671002739046147  0.04710148586975471  1.0000
  H   H8        1.0  0.47623611825374057  0.8183659492634971  0.26998436817321525  1.0000
  H   H9        1.0  0.5695704966394158  0.7016476532522709  0.6205437551233896  1.0000
  H   H10       1.0  0.400652455147678  0.3667314912856332  0.018290176939757662  1.0000
  H   H11       1.0  0.3977848381810172  0.20693814784250897  0.9208690634061809  1.0000
  C   C15       1.0  0.4845174365372489  0.573491137893528  0.9831985442234764  1.0000
  C   C16       1.0  0.5174596648306247  0.7009722586578182  0.046707597926130655  1.0000
  C   C17       1.0  0.5391056787204556  0.8298111215012535  0.96147805420238  1.0000
  C   C18       1.0  0.5279495203408859  0.8327735827685367  0.8115320810593216  1.0000
  C   C19       1.0  0.4973601735673123  0.7069013807139883  0.7464016630985739  1.0000
  C   C20       1.0  0.477210224413249  0.5756593066120985  0.83005382995449  1.0000
  C   C21       1.0  0.5714286448230428  0.9596651414486909  0.02834810142479793  1.0000
  C   C22       1.0  0.5984924245222206  0.06838107084877487  0.08435967896163077  1.0000
  C   C23       1.0  0.630182771313996  0.19568263612158976  0.1499548269994766  1.0000
  C   C24       1.0  0.6572413231184261  0.30437777960208434  0.2059637916875621  1.0000
  H   H12       1.0  0.4879733562234519  0.3345760247866514  0.2821747679501436  1.0000
  H   H13       1.0  0.5235653438485248  0.7010452916313824  0.16332285604834418  1.0000
  H   H14       1.0  0.5440822064423109  0.9322241487642033  0.7446423510029332  1.0000
  H   H15       1.0  0.4922533431922904  0.7114178073221191  0.6295616727998272  1.0000
  H   H16       1.0  0.48926387652400505  0.22090833783629374  0.7542079934524752  1.0000
  H   H17       1.0  0.6810009428926147  0.39982102753253035  0.2551445639670269  1.0000
  Zn  Zn1       1.0  0.34824722483957515  0.5745769282303501  0.40662825508449485  1.0000
  Zn  Zn2       1.0  0.6134688142082385  0.5745728422899066  0.4066234278630672  1.0000
  C   C25       1.0  0.4785382158013298  0.5695029790168009  0.669990600813691  1.0000
  C   C26       1.0  0.4831807342311246  0.57964861187073  0.1432612202549246  1.0000
  C   C27       1.0  0.4832223572261177  0.8380148490725139  0.4003953282293673  1.0000
  C   C28       1.0  0.4784964864115633  0.31113500895203927  0.412856572905424  1.0000
  O   O1        1.0  0.5833822803753683  0.5817072727343457  0.1969778961998388  1.0000
  O   O2        1.0  0.5796337131967029  0.5674401277576429  0.6162698480473381  1.0000
  O   O3        1.0  0.5834148468862546  0.7842668624832532  0.3985697552681269  1.0000
  O   O4        1.0  0.5796010572072117  0.3648805480521758  0.4146778808482128  1.0000
  O   O5        1.0  0.3821148913335696  0.7842692224710266  0.3985738020934093  1.0000
  O   O6        1.0  0.3783337735317591  0.5674442206113393  0.6162738148005042  1.0000
  O   O7        1.0  0.38208235530784673  0.5817113108827776  0.19698012944805066  1.0000
  O   O8        1.0  0.3783011311112624  0.3648845761601127  0.41468022222132217  1.0000
