data_image0
_chemical_formula_structural       NC12NC2H8C6ClH5C6NCOH5Zn2C4O8
_chemical_formula_sum              "N3 C31 H18 Cl1 O9 Zn2"
_cell_length_a       19.240039667572717
_cell_length_b       10.30297070629231
_cell_length_c       9.27373355559583
_cell_angle_alpha    86.17407986501598
_cell_angle_beta     90.0110552776814
_cell_angle_gamma    89.99831201696266

_space_group_name_H-M_alt    "P 1"
_space_group_IT_number       1

loop_
  _space_group_symop_operation_xyz
  'x, y, z'

loop_
  _atom_site_type_symbol
  _atom_site_label
  _atom_site_symmetry_multiplicity
  _atom_site_fract_x
  _atom_site_fract_y
  _atom_site_fract_z
  _atom_site_occupancy
  N   N1        1.0  0.6543070985306553  0.40546915192090793  0.41027919037707594  1.0000
  C   C1        1.0  0.594158729703607  0.4054692349973228  0.4102790994505856  1.0000
  C   C2        1.0  0.519340692546446  0.4054693507742287  0.4102789470807895  1.0000
  C   C3        1.0  0.4828786513501225  0.3421327765569962  0.5250383328150132  1.0000
  C   C4        1.0  0.410207913915812  0.3420228580335025  0.5251343688250416  1.0000
  C   C5        1.0  0.3730084575841935  0.4054694408700392  0.41027869441349135  1.0000
  C   C6        1.0  0.41018467965688765  0.468916212717992  0.2954232359029618  1.0000
  C   C7        1.0  0.48285537880263607  0.468806060082833  0.29551940784849773  1.0000
  C   C8        1.0  0.2958033671359742  0.40546936121148813  0.41027858852194243  1.0000
  C   C9        1.0  0.2586216584208069  0.29269336748991337  0.45673974410426493  1.0000
  C   C10       1.0  0.1859509589405228  0.29279925500827414  0.45663839996131134  1.0000
  C   C11       1.0  0.1494710802210902  0.4054692327324947  0.41027865611164427  1.0000
  C   C12       1.0  0.0746530430935546  0.4054691216904612  0.41027893205945287  1.0000
  N   N2        1.0  0.0145047262635759  0.4054690831132677  0.41027916335236814  1.0000
  C   C13       1.0  0.1859387123516248  0.5181392856933966  0.36391885356956855  1.0000
  C   C14       1.0  0.258609397453761  0.5182453515329729  0.36381732899441843  1.0000
  H   H1        1.0  0.5106026243461909  0.29310348114047646  0.6146392203723842  1.0000
  H   H2        1.0  0.3831238165522022  0.2938033463072218  0.6159732341406314  1.0000
  H   H3        1.0  0.3830822462267029  0.5171357509432104  0.2045843141592214  1.0000
  H   H4        1.0  0.5105611772996502  0.5178352582240925  0.2059188263523759  1.0000
  H   H5        1.0  0.2857195504869335  0.20390038352699416  0.491324130116435  1.0000
  H   H6        1.0  0.1582408261153646  0.2049162330177692  0.4923691689800565  1.0000
  H   H7        1.0  0.1582190217308793  0.6060222833107829  0.3281881006971421  1.0000
  H   H8        1.0  0.2856979841989825  0.607038414167516  0.329232893300363  1.0000
  C   C15       1.0  0.8344092386729962  0.02422174167288804  0.4102853740728374  1.0000
  C   C16       1.0  0.9061801504931195  0.021347003633839904  0.4380450914941443  1.0000
  C   C17       1.0  0.9417909613329409  0.9029637904630572  0.45181862161659536  1.0000
  C   C18       1.0  0.9061801499318766  0.7862390343087376  0.4380450237129913  1.0000
  C   C19       1.0  0.8344092460981518  0.786706684283071  0.41028545657527427  1.0000
  C   C20       1.0  0.7988736409731944  0.9062917094864978  0.39654088231126194  1.0000
  Cl  Cl1       1.0  0.03144993003821073  0.9008760737097476  0.4864970232161701  1.0000
  H   H9        1.0  0.8073743931370344  0.3526077156677794  0.39982796782582253  1.0000
  H   H10       1.0  0.9347251863505428  0.11072891376424754  0.44908568202015814  1.0000
  H   H11       1.0  0.934725158854978  0.6955277199352229  0.4490855784732435  1.0000
  H   H12       1.0  0.7435217357591328  0.9075804671456326  0.3751317093845947  1.0000
  H   H13       1.0  0.8073743897731422  0.4595797516218717  0.3998282399322839  1.0000
  C   C21       1.0  0.8343694791092507  0.40137379124769956  0.9870583842209553  1.0000
  C   C22       1.0  0.7704890696914027  0.3939221890006466  0.06100986246547025  1.0000
  C   C23       1.0  0.7072407381283375  0.3969917796067479  0.9860603935019459  1.0000
  C   C24       1.0  0.7078542899005332  0.41173306850580876  0.8347126589864988  1.0000
  C   C25       1.0  0.770689616331897  0.41724738201857914  0.7595571884006977  1.0000
  C   C26       1.0  0.8344490177991056  0.409554580603392  0.8335124169888348  1.0000
  N   N3        1.0  0.6431543353220358  0.39243829756362675  0.06607489522273613  1.0000
  C   C27       1.0  0.5805362800204594  0.33265392369136637  0.019292486425841478  1.0000
  O   O1        1.0  0.5801707997472315  0.2639482222103859  0.9119416527197709  1.0000
  H   H14       1.0  0.998152206807287  0.4915222416676044  0.08337179305233544  1.0000
  H   H15       1.0  0.659853496423772  0.420377065286879  0.7740980585663753  1.0000
  H   H16       1.0  0.9453075052755249  0.46478375328927135  0.548406152144953  1.0000
  H   H17       1.0  0.6429054239230401  0.42695823983767195  0.16949389463423128  1.0000
  H   H18       1.0  0.5330314751950349  0.3435419583992112  0.0797133392999394  1.0000
  Zn  Zn1       1.0  0.7582523631496884  0.4054657462844254  0.4102874929147715  1.0000
  Zn  Zn2       1.0  0.9105594815206057  0.40546201232311435  0.4102826230225889  1.0000
  C   C28       1.0  0.8344324336680636  0.4028362197278037  0.6735144611389103  1.0000
  C   C29       1.0  0.8343810742045675  0.4080931783037709  0.14705579620218345  1.0000
  C   C30       1.0  0.834405139469547  0.6425252631660126  0.40454221323316664  1.0000
  C   C31       1.0  0.8344083164384853  0.16840257580386164  0.4160281209476142  1.0000
  O   O2        1.0  0.8921847232908584  0.4103411850264991  0.20075054115856217  1.0000
  O   O3        1.0  0.8922263632394576  0.4005843955946764  0.619815605168575  1.0000
  O   O4        1.0  0.8922035438014159  0.594136343955429  0.4026186119863757  1.0000
  O   O5        1.0  0.8922074907466434  0.2167892449098838  0.4179474262801575  1.0000
  O   O6        1.0  0.7766043019487056  0.5941385137002704  0.4026226896512839  1.0000
  O   O7        1.0  0.7766271213764006  0.4005881244038319  0.6198196059878767  1.0000
  O   O8        1.0  0.7765854813111971  0.41034485184717245  0.20075280920177363  1.0000
  O   O9        1.0  0.7766082487742934  0.21679290348903368  0.4179498023780537  1.0000
