data_image0
_chemical_formula_structural       NC10NC3NH7C12SCH12C13F3H9Zn2C4O8
_chemical_formula_sum              "N3 C43 H28 S1 F3 Zn2 O8"
_cell_length_a       19.210446455230148
_cell_length_b       10.299776766347529
_cell_length_c       10.2985328690268
_cell_angle_alpha    85.58005012136333
_cell_angle_beta     89.99621934770114
_cell_angle_gamma    89.9285037425463

_space_group_name_H-M_alt    "P 1"
_space_group_IT_number       1

loop_
  _space_group_symop_operation_xyz
  'x, y, z'

loop_
  _atom_site_type_symbol
  _atom_site_label
  _atom_site_symmetry_multiplicity
  _atom_site_fract_x
  _atom_site_fract_y
  _atom_site_fract_z
  _atom_site_occupancy
  N   N1        1.0  0.6551454069727063  0.4197263226074388  0.5673120556746516  1.0000
  C   C1        1.0  0.5949163106597097  0.4219338492995339  0.5675433667341794  1.0000
  C   C2        1.0  0.520111192933805  0.4246707780924759  0.5678299324124401  1.0000
  C   C3        1.0  0.4844716571203031  0.5409027410238639  0.5829504971324593  1.0000
  C   C4        1.0  0.4118061347638071  0.5410542588024443  0.5828979061326514  1.0000
  C   C5        1.0  0.3749442629643407  0.42537975213627144  0.5679164687233087  1.0000
  C   C6        1.0  0.2976224720170179  0.4240232669325334  0.5677657760726786  1.0000
  C   C7        1.0  0.2598369785752511  0.527572508942034  0.5044064365042769  1.0000
  C   C8        1.0  0.18705897632621202  0.5261702819971019  0.5042972614726435  1.0000
  C   C9        1.0  0.1510649864495871  0.4214763011703613  0.5674964427242026  1.0000
  C   C10       1.0  0.07613579175621679  0.42017421265272503  0.5673595179384943  1.0000
  N   N2        1.0  0.0158982010427171  0.4191272892871811  0.567249465286183  1.0000
  C   C11       1.0  0.18812678819874415  0.3180527410779659  0.630830780425214  1.0000
  C   C12       1.0  0.26090671369614227  0.3191807218520628  0.6309901866147292  1.0000
  C   C13       1.0  0.4131932130357204  0.31096808295618117  0.553084209607599  1.0000
  N   N3        1.0  0.48396254223851337  0.3134130433002993  0.5532499462754701  1.0000
  H   H1        1.0  0.5125504473086268  0.6303375754948175  0.5950057027574065  1.0000
  H   H2        1.0  0.3845150613366916  0.6310713519083989  0.5963479711517665  1.0000
  H   H3        1.0  0.2865393239437372  0.6088088287456022  0.45341764029363013  1.0000
  H   H4        1.0  0.1588879445397451  0.6065793077884927  0.4546388966561186  1.0000
  H   H5        1.0  0.160784729654663  0.23668031418465652  0.6803895897050038  1.0000
  H   H6        1.0  0.288432951738782  0.238891299785289  0.6820863859814892  1.0000
  H   H7        1.0  0.386950312076396  0.22008807779505313  0.5395878370652301  1.0000
  C   C14       1.0  0.835590762981386  0.03806157022932631  0.5672791554230207  1.0000
  C   C15       1.0  0.8397808246703511  0.02653572000170534  0.7038017428651884  1.0000
  C   C16       1.0  0.8418369432700283  0.9035569719075875  0.7729841951725165  1.0000
  C   C17       1.0  0.8396477219432592  0.791248169393344  0.703816957335235  1.0000
  C   C18       1.0  0.8354595193215648  0.8007820687881146  0.5672936201367218  1.0000
  C   C19       1.0  0.8334540927488127  0.9246278192355715  0.4997889387429445  1.0000
  C   C20       1.0  0.8462618845751197  0.8924278417281818  0.9174096900500601  1.0000
  C   C21       1.0  0.806426785721704  0.7990568103114141  0.9914643998663681  1.0000
  C   C22       1.0  0.8106120790640623  0.7888174165143679  0.12738235736728032  1.0000
  C   C23       1.0  0.8544590098912939  0.8716713412145662  0.1910524321176067  1.0000
  C   C24       1.0  0.8944602963964497  0.9644687411343508  0.11837085304561913  1.0000
  C   C25       1.0  0.8903770734320832  0.9750578509446083  0.9824424621143435  1.0000
  S   S1        1.0  0.8599060786121362  0.8580721251041842  0.3654538580304802  1.0000
  C   C26       1.0  0.7899584295374338  0.9742562226209922  0.3849960556377606  1.0000
  H   H8        1.0  0.8340215448392949  0.3699068788566058  0.5152578475840952  1.0000
  H   H9        1.0  0.840495102513533  0.1133822459933309  0.7567636046048084  1.0000
  H   H10       1.0  0.8421769936633701  0.6962468124924716  0.7565823542810597  1.0000
  H   H11       1.0  0.8302221142471419  0.9327510335345754  0.39446756736782485  1.0000
  H   H12       1.0  0.8338288715891201  0.4769612067254405  0.5152769890412592  1.0000
  H   H13       1.0  0.771383062277562  0.735136122045331  0.9443531004244854  1.0000
  H   H14       1.0  0.7794931729623015  0.7168243138428216  0.1831130980273074  1.0000
  H   H15       1.0  0.9287632509601149  0.028447034274149192  0.16707132516354273  1.0000
  H   H16       1.0  0.9223746096021729  0.04668098801305719  0.9281247092313558  1.0000
  H   H17       1.0  0.8038907999613965  0.07054743551686204  0.3361126081631882  1.0000
  H   H18       1.0  0.7818979772413901  0.9849820825829133  0.49028399559506664  1.0000
  H   H19       1.0  0.7409742270043911  0.9387918165094692  0.3428795593080115  1.0000
  C   C27       1.0  0.8355051439874237  0.4192999120134533  0.18588889529775643  1.0000
  C   C28       1.0  0.9053118896665984  0.3782930643842806  0.18808912225275232  1.0000
  C   C29       1.0  0.9406834701992125  0.3576332527964494  0.0720331405885275  1.0000
  C   C30       1.0  0.9053529402405788  0.3785486103427486  0.9527884434422156  1.0000
  C   C31       1.0  0.8355451118935066  0.41954375505798325  0.9486838672297648  1.0000
  C   C32       1.0  0.8010670192449959  0.4396524379900131  0.0657313807834572  1.0000
  C   C33       1.0  0.014485821569486527  0.3142914227914681  0.07529374273258393  1.0000
  C   C34       1.0  0.06254115182910434  0.3688115193849075  0.983744774881504  1.0000
  C   C35       1.0  0.13199904123643313  0.3281231663464791  0.9868349267540291  1.0000
  C   C36       1.0  0.15466580789929596  0.23069046451546527  0.08030065972804756  1.0000
  C   C37       1.0  0.10701310069273708  0.1779887255851922  0.1734269190415916  1.0000
  C   C38       1.0  0.03755973681587577  0.21871012573658039  0.17044768798956778  1.0000
  C   C39       1.0  0.23014378201177155  0.1902790119130331  0.08657033027121441  1.0000
  F   F1        1.0  0.26582864444191867  0.26953349914204194  0.166050320923244  1.0000
  F   F2        1.0  0.25978669986294417  0.20140284366441907  0.9637081895027371  1.0000
  F   F3        1.0  0.23661233879090737  0.06214849488727125  0.13645287596478872  1.0000
  H   H20       1.0  0.703728892078836  0.49760590100376606  0.38899320566929335  1.0000
  H   H21       1.0  0.9325741198955172  0.36408840233958273  0.2801631291400002  1.0000
  H   H22       1.0  0.9320893573235186  0.36112287603755994  0.8631527981536623  1.0000
  H   H23       1.0  0.7472653538090266  0.47125197755097464  0.06330249816354439  1.0000
  H   H24       1.0  0.7035062083345647  0.4962666611676824  0.7336589475347163  1.0000
  H   H25       1.0  0.04666564475579004  0.44460134444910526  0.9110196747905254  1.0000
  H   H26       1.0  0.16807993332607563  0.3732890740925995  0.9163442385992339  1.0000
  H   H27       1.0  0.12344462487028053  0.1050894826535862  0.2485948554220898  1.0000
  H   H28       1.0  0.0017293978115129358  0.17449781874154666  0.24195802773638403  1.0000
  Zn  Zn1       1.0  0.7592508708016288  0.41954999290811434  0.5673014930039091  1.0000
  Zn  Zn2       1.0  0.9117927236524439  0.4192930399407414  0.5672706643304436  1.0000
  C   C40       1.0  0.8355368963978533  0.41432402059399465  0.8044991786801994  1.0000
  C   C41       1.0  0.8355083635331804  0.4245206480935022  0.3300731058245317  1.0000
  C   C42       1.0  0.835480454392203  0.6566100166829916  0.5621153092277027  1.0000
  C   C43       1.0  0.8355647537591172  0.18223309182675604  0.5724570445018201  1.0000
  O   O1        1.0  0.8933982831955664  0.42616959681509486  0.3784509445881483  1.0000
  O   O2        1.0  0.8934227136200433  0.41247907068307343  0.7560975677741599  1.0000
  O   O3        1.0  0.8933763556882133  0.6081280783957503  0.5603708784684631  1.0000
  O   O4        1.0  0.8934445890684936  0.23052059844910364  0.5741775365225796  1.0000
  O   O5        1.0  0.7775989533305308  0.6083224344888496  0.560394620815462  1.0000
  O   O6        1.0  0.7776453109870262  0.4126749870430183  0.7561212409000565  1.0000
  O   O7        1.0  0.7776208805348092  0.426365467420303  0.37847305619553584  1.0000
  O   O8        1.0  0.7776671864115909  0.23071645979672278  0.5741997455049218  1.0000
