data_image0
_chemical_formula_structural       NC10NC5H10C7OC3NC3H11C6NCOC6H10Zn2C4O8
_chemical_formula_sum              "N4 C45 H31 O10 Zn2"
_cell_length_a       19.4436361288709
_cell_length_b       10.298746005989749
_cell_length_c       10.299662537453274
_cell_angle_alpha    85.54306763902352
_cell_angle_beta     89.69093770751046
_cell_angle_gamma    89.42734808848357

_space_group_name_H-M_alt    "P 1"
_space_group_IT_number       1

loop_
  _space_group_symop_operation_xyz
  'x, y, z'

loop_
  _atom_site_type_symbol
  _atom_site_label
  _atom_site_symmetry_multiplicity
  _atom_site_fract_x
  _atom_site_fract_y
  _atom_site_fract_z
  _atom_site_occupancy
  N   N1        1.0  0.6479431872881284  0.40996654701348884  0.5621861197225528  1.0000
  C   C1        1.0  0.5891071445344338  0.41986128580326065  0.5765712711337897  1.0000
  C   C2        1.0  0.5157777232265234  0.4322013218381376  0.594565056827607  1.0000
  C   C3        1.0  0.47359743718678443  0.4002542235103568  0.4998864769245851  1.0000
  C   C4        1.0  0.3976932733490515  0.410690404831215  0.5052155842685288  1.0000
  C   C5        1.0  0.3579448303502753  0.38588125271016677  0.6122881582815132  1.0000
  C   C6        1.0  0.2818254690608311  0.3898053597276947  0.5993288427493346  1.0000
  C   C7        1.0  0.24126099905443144  0.447419426044299  0.693106600786598  1.0000
  C   C8        1.0  0.16959860369321691  0.45106330820461626  0.6825627913084329  1.0000
  C   C9        1.0  0.1375058710806294  0.3966969221418559  0.5785277218841005  1.0000
  C   C10       1.0  0.0637142464491483  0.4004021384438827  0.567828632423592  1.0000
  N   N2        1.0  0.004390785250514195  0.40338093784269735  0.5592272738388817  1.0000
  C   C11       1.0  0.17734536658390562  0.3383754962487742  0.48513314502087695  1.0000
  C   C12       1.0  0.249024203469099  0.33467752512134386  0.4954251668739901  1.0000
  C   C13       1.0  0.3860655034366651  0.3453446527635693  0.7433820694828275  1.0000
  C   C14       1.0  0.44472942942162086  0.3884438345098385  0.7906293733491302  1.0000
  C   C15       1.0  0.48894985168528  0.4863510611833033  0.7162689303412488  1.0000
  H   H1        1.0  0.495700174986237  0.3711847943573501  0.40957515166359443  1.0000
  H   H2        1.0  0.3730029759584618  0.43323845692500373  0.41205719703387933  1.0000
  H   H3        1.0  0.2651295222793645  0.4906690178817674  0.7739604752396032  1.0000
  H   H4        1.0  0.1392525613753929  0.4963411786067126  0.755489206830297  1.0000
  H   H5        1.0  0.153004954202368  0.2953213923718152  0.4046137779436735  1.0000
  H   H6        1.0  0.2787043991758638  0.2871556999643381  0.4231949023189175  1.0000
  H   H7        1.0  0.3550904464059575  0.2810868585083055  0.8076247246654419  1.0000
  H   H8        1.0  0.45986995982473955  0.35431964281521244  0.8885629329131984  1.0000
  H   H9        1.0  0.4588499681058208  0.577086577412343  0.6910244455366934  1.0000
  H   H10       1.0  0.5322327703403055  0.5119041684175875  0.7793575204208631  1.0000
  C   C16       1.0  0.8261374105232009  0.025272217600798678  0.5606897965627478  1.0000
  C   C17       1.0  0.8583270672776603  0.03323069421669533  0.43791705754582466  1.0000
  C   C18       1.0  0.8738805542044186  0.9201451392168187  0.37515421750566236  1.0000
  C   C19       1.0  0.8583275890603975  0.7979941029756512  0.4378679156045997  1.0000
  C   C20       1.0  0.8262031269939549  0.7880651782603438  0.5607348061465548  1.0000
  C   C21       1.0  0.8101463400843206  0.9022696143727273  0.6212130182141453  1.0000
  C   C22       1.0  0.9084570635621351  0.9283467048731362  0.24605033737832516  1.0000
  O   O1        1.0  0.9504546069685953  0.8396024748081217  0.22048920715578602  1.0000
  C   C23       1.0  0.8953914667056248  0.03716420002755472  0.14595205337854456  1.0000
  C   C24       1.0  0.8302665088218996  0.09776416082163711  0.13438506844039624  1.0000
  C   C25       1.0  0.8182261999191487  0.19969443515879193  0.038577216843150866  1.0000
  N   N3        1.0  0.7520001293084787  0.26115658786320983  0.027922757577064652  1.0000
  C   C26       1.0  0.8713535568889752  0.2406320398864532  0.95300117401213  1.0000
  C   C27       1.0  0.9358509330640389  0.17987962170623642  0.9627172778836269  1.0000
  C   C28       1.0  0.9478377811863721  0.07837492585145725  0.05822136221621577  1.0000
  H   H11       1.0  0.7662684986221093  0.21751183990240167  0.7935247220923612  1.0000
  H   H12       1.0  0.872010374678926  0.12751240938510255  0.39158120780555944  1.0000
  H   H13       1.0  0.870737890807717  0.7105915267962251  0.3900665356731591  1.0000
  H   H14       1.0  0.7853373166638281  0.8953829257842126  0.7158504339357452  1.0000
  H   H15       1.0  0.7657627059224641  0.561981570248247  0.7930859449773409  1.0000
  H   H16       1.0  0.7886070851400354  0.06510522214051684  0.1986941388785375  1.0000
  H   H17       1.0  0.7120302435761239  0.2314168673133195  0.09120633168296699  1.0000
  H   H18       1.0  0.7424674487636286  0.3369753871048814  0.9567627786149662  1.0000
  H   H19       1.0  0.8626950506468636  0.3191721264413168  0.8785851629666906  1.0000
  H   H20       1.0  0.9766679368180085  0.21151941209917569  0.8960828669521073  1.0000
  H   H21       1.0  0.9982803050079584  0.032798532629638506  0.06433026822181365  1.0000
  C   C29       1.0  0.8262176316255272  0.4068083516288164  0.17933594142671067  1.0000
  C   C30       1.0  0.8964306462478542  0.4378884414710256  0.17494106635004283  1.0000
  C   C31       1.0  0.932002891379474  0.45165752345345855  0.056041985346118275  1.0000
  C   C32       1.0  0.8963102687335022  0.4375805658969957  0.9397987504840036  1.0000
  C   C33       1.0  0.826122936147924  0.40652900832522665  0.9420886670089834  1.0000
  C   C34       1.0  0.7915315695235062  0.3908725544790226  0.062421857675101  1.0000
  N   N4        1.0  0.003627169921741835  0.48542277883922585  0.05496596651969755  1.0000
  C   C35       1.0  0.0523015570444445  0.44467006247596896  0.9603465460866611  1.0000
  O   O2        1.0  0.039748499889905364  0.34633540009336455  0.8988933410395831  1.0000
  C   C36       1.0  0.11834284657608851  0.5137845939923683  0.9374521160702793  1.0000
  C   C37       1.0  0.1266515159599002  0.6417122247272031  0.9737446117110529  1.0000
  C   C38       1.0  0.18905303064104984  0.7061204274084785  0.951039953887705  1.0000
  C   C39       1.0  0.24364605346479506  0.6440795799178618  0.8916083081646012  1.0000
  C   C40       1.0  0.23589561236526047  0.517588141762245  0.8543052972763157  1.0000
  C   C41       1.0  0.17361132796933454  0.45272070217812993  0.8766798752206616  1.0000
  H   H22       1.0  0.693613993219589  0.34939007860321225  0.3947979443710515  1.0000
  H   H23       1.0  0.9239883613774208  0.4505995905069403  0.2641334805685159  1.0000
  H   H24       1.0  0.9229511580296453  0.45305363801936704  0.8474653628436741  1.0000
  H   H25       1.0  0.737407421739448  0.3668963148561757  0.0649456797884851  1.0000
  H   H26       1.0  0.7989771605083079  0.3963025936607272  0.615389784138825  1.0000
  H   H27       1.0  0.022401995783505324  0.5322837411075831  0.13373553172676944  1.0000
  H   H28       1.0  0.0848648177202318  0.6930237862421915  0.01786834625654477  1.0000
  H   H29       1.0  0.19497819918980805  0.8044988854199392  0.9791125086011383  1.0000
  H   H30       1.0  0.29187684845093026  0.6941709567553487  0.8740934842978231  1.0000
  H   H31       1.0  0.16886473772701738  0.3545431091872122  0.8472225132770381  1.0000
  Zn  Zn1       1.0  0.7508062644031235  0.4080626080469887  0.5613397727962333  1.0000
  Zn  Zn2       1.0  0.9015276974102118  0.40527426430919133  0.5600843015275774  1.0000
  C   C42       1.0  0.8261388377559287  0.4014077306716286  0.7979117832083398  1.0000
  C   C43       1.0  0.8261967700561441  0.4119307499486711  0.32351240497143285  1.0000
  C   C44       1.0  0.8261878155072212  0.643883015365543  0.5555510663516692  1.0000
  C   C45       1.0  0.8261477407311077  0.16945390574512698  0.5658731914043871  1.0000
  O   O3        1.0  0.8833877665694947  0.41258604547663724  0.37142289806734274  1.0000
  O   O4        1.0  0.8833419214003914  0.39863516709535235  0.7490480425579755  1.0000
  O   O5        1.0  0.8833807003299028  0.5944370397741916  0.5533400554564409  1.0000
  O   O6        1.0  0.8833489362218603  0.21678418307594588  0.5671307882212622  1.0000
  O   O7        1.0  0.7689849741576481  0.5965526902331755  0.5542932865241483  1.0000
  O   O8        1.0  0.7689461953680532  0.4007523780169068  0.7500012044709997  1.0000
  O   O9        1.0  0.7689920407728944  0.4147032117093304  0.37237449854611704  1.0000
  O   O10       1.0  0.7689532104095557  0.21890133998343234  0.5680824860692515  1.0000
