data_image0
_chemical_formula_structural       NC12NC2H8C7OC3NC3H11C6NCOC6H11Zn2C4O8
_chemical_formula_sum              "N4 C44 H30 O10 Zn2"
_cell_length_a       17.80743265337812
_cell_length_b       10.298746005989749
_cell_length_c       10.299662537453274
_cell_angle_alpha    85.54306763902352
_cell_angle_beta     91.52043180893111
_cell_angle_gamma    89.44452832379845

_space_group_name_H-M_alt    "P 1"
_space_group_IT_number       1

loop_
  _space_group_symop_operation_xyz
  'x, y, z'

loop_
  _atom_site_type_symbol
  _atom_site_label
  _atom_site_symmetry_multiplicity
  _atom_site_fract_x
  _atom_site_fract_y
  _atom_site_fract_z
  _atom_site_occupancy
  N   N1        1.0  0.7077337420280989  0.4072768127444486  0.6014600805313344  1.0000
  C   C1        1.0  0.6569255244317612  0.4368613597851365  0.5327641845429718  1.0000
  C   C2        1.0  0.5937150856462118  0.4736623875931636  0.44731513771508324  1.0000
  C   C3        1.0  0.6054630942692766  0.5277304872288342  0.32070058307863625  1.0000
  C   C4        1.0  0.5441595606233317  0.5630269865646196  0.23764737785762957  1.0000
  C   C5        1.0  0.4709538247341429  0.5445190963170252  0.28054885062973645  1.0000
  C   C6        1.0  0.4582289715868074  0.49033202538373377  0.40763153572720645  1.0000
  C   C7        1.0  0.5203898237514579  0.4550387858054812  0.4906682296026226  1.0000
  C   C8        1.0  0.3804545575650464  0.4707089463965773  0.4533931938461735  1.0000
  C   C9        1.0  0.36165513270180233  0.49785482493322736  0.5804395754104328  1.0000
  C   C10       1.0  0.2884194495374774  0.47938849789262333  0.6233816146798234  1.0000
  C   C11       1.0  0.2330400931962161  0.4335217166245777  0.5401152154803666  1.0000
  C   C12       1.0  0.1576675783240615  0.41450204500177446  0.5844581283277659  1.0000
  N   N2        1.0  0.0970734139227678  0.39921150820330303  0.6201067797582749  1.0000
  C   C13       1.0  0.2511479413853391  0.4062067283869564  0.41361178664342185  1.0000
  C   C14       1.0  0.3243308028424081  0.4246879282541831  0.3704138624814599  1.0000
  H   H1        1.0  0.661934428179247  0.5425671061249153  0.2862650197662029  1.0000
  H   H2        1.0  0.553373701405843  0.6051605413402867  0.13987237419699716  1.0000
  H   H3        1.0  0.4243253770579117  0.574179213327713  0.21496089761383438  1.0000
  H   H4        1.0  0.5118739590681737  0.41151984560453325  0.5883186651494101  1.0000
  H   H5        1.0  0.40332663931160234  0.5350152327516855  0.6460157790884908  1.0000
  H   H6        1.0  0.2749657730148626  0.5012029698131923  0.7213921331751978  1.0000
  H   H7        1.0  0.2087596162537385  0.3703135723488775  0.34844864861454505  1.0000
  H   H8        1.0  0.3372559113317612  0.4013376755145713  0.2727065422953072  1.0000
  C   C15       1.0  0.9023712764480226  0.021842765532137376  0.610764693436582  1.0000
  C   C16       1.0  0.9375313131246688  0.029667616817017795  0.48994307504662915  1.0000
  C   C17       1.0  0.954520036395811  0.9165174963620047  0.42812298283989664  1.0000
  C   C18       1.0  0.9375318830561941  0.7944310234099554  0.48989396473236635  1.0000
  C   C19       1.0  0.9024430570681017  0.7846354533902287  0.6108136863111269  1.0000
  C   C20       1.0  0.8849045905675661  0.8989065442508202  0.6703186438832989  1.0000
  C   C21       1.0  0.9922871783830981  0.9245755284123707  0.3011148983009082  1.0000
  O   O1        1.0  0.038160148628287635  0.835656958630646  0.27809937686964914  1.0000
  C   C22       1.0  0.978015921370905  0.03344726132142539  0.20022466564119412  1.0000
  C   C23       1.0  0.9068813974701617  0.09431756808784963  0.184710243499016  1.0000
  C   C24       1.0  0.8937300393849212  0.19629782401613885  0.08817258930603433  1.0000
  N   N3        1.0  0.8213927948661913  0.2580348936193222  0.07350395078363259  1.0000
  C   C25       1.0  0.9517598541742198  0.23701488707368368  0.005816769754526834  1.0000
  C   C26       1.0  0.02220888471719151  0.17599472813105943  0.019442271045218222  1.0000
  C   C27       1.0  0.035301848796724045  0.07444027261091903  0.11567291754037479  1.0000
  H   H9        1.0  0.8369778131287325  0.21433091496875753  0.8399707679406772  1.0000
  H   H10       1.0  0.9524772814447466  0.1238925299979159  0.4444366154275266  1.0000
  H   H11       1.0  0.9510873759877413  0.706976929729375  0.4428448138759611  1.0000
  H   H12       1.0  0.8578062533585041  0.8921228425935437  0.7634523033610863  1.0000
  H   H13       1.0  0.8364253471609855  0.5588027449554109  0.8395013330719323  1.0000
  H   H14       1.0  0.861377747780596  0.061831565524747015  0.2464941996908827  1.0000
  H   H15       1.0  0.7777345894050145  0.22846109559704408  0.13436481907738762  1.0000
  H   H16       1.0  0.8109804627266989  0.3338932648142767  0.001766164801618513  1.0000
  H   H17       1.0  0.9423023629260274  0.31559091671956985  0.9308759382595682  1.0000
  H   H18       1.0  0.06679237810351202  0.20746507944984738  0.9552819125263396  1.0000
  H   H19       1.0  0.0903990808411097  0.02865448296731277  0.12483931028637073  1.0000
  C   C28       1.0  0.9024589001503054  0.4033785665472423  0.2294157007645545  1.0000
  C   C29       1.0  0.9791509937668957  0.43416718893479295  0.22927666669160973  1.0000
  C   C30       1.0  0.018005755501039774  0.4477886038244401  0.11253373608572725  1.0000
  C   C31       1.0  0.9790195081206851  0.4338598130705094  0.9941270543497772  1.0000
  C   C32       1.0  0.9023554664140888  0.4030996163424248  0.9921626865434785  1.0000
  C   C33       1.0  0.8645720961691932  0.38758675777748597  0.11039918107360402  1.0000
  N   N4        1.0  0.09623934089444663  0.48125653333307805  0.11579909959592682  1.0000
  C   C34       1.0  0.14940527706773055  0.440301760416659  0.024129993341282407  1.0000
  O   O2        1.0  0.13569385562188097  0.3420192081398048  0.9619159063459248  1.0000
  C   C35       1.0  0.2215406893778955  0.5091421420953717  0.005238542394226049  1.0000
  C   C36       1.0  0.23061606170936555  0.6370352819779066  0.04203465372562665  1.0000
  C   C37       1.0  0.29877582997292573  0.7011844442127806  0.023112356285221347  1.0000
  C   C38       1.0  0.3584065585455734  0.6389169707968971  0.9669897726540988  1.0000
  C   C39       1.0  0.34994092638930385  0.51245770618278  0.9292169821216012  1.0000
  C   C40       1.0  0.28190920612450077  0.4478488204000615  0.9478163053949222  1.0000
  H   H20       1.0  0.7576189341521088  0.34651075621253064  0.43684016245523516  1.0000
  H   H21       1.0  0.009251664987811605  0.4467639407022208  0.32013944436973785  1.0000
  H   H22       1.0  0.008118751144489783  0.44922229384119494  0.903408458349602  1.0000
  H   H23       1.0  0.8054535092362624  0.3638351976912615  0.10964236114833015  1.0000
  H   H24       1.0  0.8727047474149588  0.39298588890796343  0.663818409216661  1.0000
  H   H25       1.0  0.11674666009118885  0.5280395577613495  0.19570666855016758  1.0000
  H   H26       1.0  0.18497339288845183  0.6885203079515858  0.08362555949663664  1.0000
  H   H27       1.0  0.3052477580546311  0.7995383057330547  0.0515440548895616  1.0000
  H   H28       1.0  0.41108796902446576  0.6888081325157713  0.9523983753920356  1.0000
  H   H29       1.0  0.39613921865864965  0.46437877166852964  0.8854559103052263  1.0000
  H   H30       1.0  0.2767246125675735  0.3496909313996888  0.9180712370554142  1.0000
  Zn  Zn1       1.0  0.820088763133904  0.4049458697612951  0.6068486019369022  1.0000
  Zn  Zn2       1.0  0.984718387889121  0.40153185295309446  0.6147288508503486  1.0000
  C   C41       1.0  0.9023728353821683  0.39797827267825553  0.8479867665914286  1.0000
  C   C42       1.0  0.9024361135281848  0.4085010514674028  0.37359089982116367  1.0000
  C   C43       1.0  0.902426332676188  0.6404533540562949  0.6056290184368334  1.0000
  C   C44       1.0  0.9023825599013273  0.16602441079382624  0.615948714425989  1.0000
  O   O3        1.0  0.9649045502164633  0.40891893639175364  0.42496792671161976  1.0000
  O   O4        1.0  0.9648544745713757  0.3949682483224044  0.8025902923762543  1.0000
  O   O5        1.0  0.9648968319221952  0.5907699600226002  0.6068846557927707  1.0000
  O   O6        1.0  0.9648621367027868  0.2131172351831525  0.6206734632308677  1.0000
  O   O7        1.0  0.8399449581402283  0.5933604886976898  0.6009039868604098  1.0000
  O   O8        1.0  0.8399026009422367  0.3975603374594839  0.796609554297691  1.0000
  O   O9        1.0  0.839952676844815  0.41151098083899296  0.41898562721309635  1.0000
  O   O10       1.0  0.8399102633139853  0.21570927030525033  0.6146912611006068  1.0000
