data_image0
_chemical_formula_structural       NC12NC2H8C7OC6OCH11C7OC6H10Zn2C4O8
_chemical_formula_sum              "N2 C45 H29 O11 Zn2"
_cell_length_a       17.80743265337812
_cell_length_b       10.299359160628079
_cell_length_c       10.299382801718286
_cell_angle_alpha    85.57723515363111
_cell_angle_beta     91.51478421497153
_cell_angle_gamma    89.45809633783337

_space_group_name_H-M_alt    "P 1"
_space_group_IT_number       1

loop_
  _space_group_symop_operation_xyz
  'x, y, z'

loop_
  _atom_site_type_symbol
  _atom_site_label
  _atom_site_symmetry_multiplicity
  _atom_site_fract_x
  _atom_site_fract_y
  _atom_site_fract_z
  _atom_site_occupancy
  N   N1        1.0  0.7080124511210353  0.40639941449293276  0.6015488987303176  1.0000
  C   C1        1.0  0.6572124807218148  0.43594344267476454  0.5328556203695376  1.0000
  C   C2        1.0  0.5940123006281604  0.47269407002033864  0.4474098296103775  1.0000
  C   C3        1.0  0.605775446522116  0.5266875186481021  0.3208000792796575  1.0000
  C   C4        1.0  0.5444818188642527  0.5619350614895524  0.23775001797091402  1.0000
  C   C5        1.0  0.47127092809481463  0.5434524778760141  0.2806498545903449  1.0000
  C   C6        1.0  0.4585308928506505  0.48934032867864596  0.4077277211911643  1.0000
  C   C7        1.0  0.5206818404793596  0.4540960361070021  0.49076127161351285  1.0000
  C   C8        1.0  0.3807509966201694  0.4697442357441377  0.4534876393164067  1.0000
  C   C9        1.0  0.3619475876895639  0.496959711355428  0.5805327926614328  1.0000
  C   C10       1.0  0.288706752901049  0.47851871102621835  0.6234731968377922  1.0000
  C   C11       1.0  0.23332614303639984  0.4326081467063449  0.5402063635262369  1.0000
  C   C12       1.0  0.15794831523651254  0.41361462481344635  0.5845475901056586  1.0000
  N   N2        1.0  0.0973498796027907  0.39834511060079714  0.6201948858914264  1.0000
  C   C13       1.0  0.25143791901811513  0.40522387742286  0.4137041450758424  1.0000
  C   C14       1.0  0.3246259496972157  0.4236796058671402  0.3705078615501163  1.0000
  H   H1        1.0  0.6622509154594959  0.541503826005387  0.28636582841142033  1.0000
  H   H2        1.0  0.5537077014515921  0.6040109440105403  0.1399787411239084  1.0000
  H   H3        1.0  0.4246505491435569  0.5730738169652219  0.2150644631828558  1.0000
  H   H4        1.0  0.5121540508573089  0.4106347885357335  0.5884079215824228  1.0000
  H   H5        1.0  0.4036202244152504  0.5341545326799395  0.6461093840418461  1.0000
  H   H6        1.0  0.2752501229763535  0.5003868170199053  0.721482806332049  1.0000
  H   H7        1.0  0.2090486131105153  0.3692964572695421  0.34854066738547324  1.0000
  H   H8        1.0  0.3375537817561012  0.40027598953258076  0.27280137679388045  1.0000
  C   C15       1.0  0.9025963634638681  0.020995730827081602  0.6108363230238391  1.0000
  C   C16       1.0  0.8404754772761123  0.02754568038681836  0.523464585506317  1.0000
  C   C17       1.0  0.8096821612010316  0.9138533409601206  0.47832933976542624  1.0000
  C   C18       1.0  0.8406543745463004  0.7922805150480937  0.5237282585823472  1.0000
  C   C19       1.0  0.9027731621009951  0.7837386348087788  0.6109190363445499  1.0000
  C   C20       1.0  0.933490208063247  0.8986876763378809  0.6537651130620042  1.0000
  C   C21       1.0  0.7435666324907402  0.9229169591326083  0.38722976910054163  1.0000
  O   O1        1.0  0.695823559155325  0.01277951345332329  0.3965097753934886  1.0000
  C   C22       1.0  0.7316109673549741  0.830107113067438  0.28561003415114206  1.0000
  C   C23       1.0  0.7927285503314374  0.7754817248544538  0.22448209061171887  1.0000
  C   C24       1.0  0.7806725388390372  0.6893261907636172  0.12782322504322607  1.0000
  C   C25       1.0  0.7076973463687012  0.6569148935297195  0.08956574868555413  1.0000
  C   C26       1.0  0.6463271533932123  0.7125800334725116  0.1493698397913379  1.0000
  C   C27       1.0  0.658314459965069  0.798795887065833  0.24607183631336982  1.0000
  O   O2        1.0  0.6986174485098088  0.5698572465922649  0.992232922876648  1.0000
  C   C28       1.0  0.6278302752778984  0.5284686429214188  0.9439748902241352  1.0000
  H   H9        1.0  0.8163213101643868  0.12136713188560777  0.48932313225629304  1.0000
  H   H10       1.0  0.8157209724288771  0.704153350386836  0.49208280294775464  1.0000
  H   H11       1.0  0.9814082291376538  0.8928306441236875  0.7210284899119556  1.0000
  H   H12       1.0  0.9264101709441239  0.45296048077252515  0.6447690574721188  1.0000
  H   H13       1.0  0.8498392445295869  0.800392672156292  0.25034824943521206  1.0000
  H   H14       1.0  0.828359630346354  0.6478828232238223  0.08192592984971436  1.0000
  H   H15       1.0  0.5891853880980853  0.6899464064868606  0.12185758279776948  1.0000
  H   H16       1.0  0.6102077109694483  0.8402019424726711  0.29089827578151173  1.0000
  H   H17       1.0  0.6372231842442776  0.45986435584433816  0.8679501708326006  1.0000
  H   H18       1.0  0.5948279333933768  0.6134915282748523  0.8998844742676435  1.0000
  H   H19       1.0  0.5962783084659897  0.47756749756904887  0.0239992696346525  1.0000
  C   C29       1.0  0.9027596823656212  0.4022924291295887  0.22951145209005785  1.0000
  C   C30       1.0  0.981684155133766  0.4015231921551603  0.2319876929604745  1.0000
  C   C31       1.0  0.021491076162212686  0.3996471056004644  0.11617836179073551  1.0000
  C   C32       1.0  0.9815010940914549  0.4015550165664097  0.9967333599318962  1.0000
  C   C33       1.0  0.9026098051228986  0.4024419886454282  0.9922438226499897  1.0000
  C   C34       1.0  0.8636966444505424  0.4024608217033594  0.1092205720049817  1.0000
  C   C35       1.0  0.1048253812357347  0.4002188700879908  0.11854109874484164  1.0000
  O   O3        1.0  0.13794015372271673  0.4602441234794475  0.025606067588456405  1.0000
  C   C36       1.0  0.150592817417756  0.3326873099357859  0.22623265518345928  1.0000
  C   C37       1.0  0.2212165555215233  0.38168728481835185  0.2607212604404101  1.0000
  C   C38       1.0  0.26515260713584204  0.3178430118754527  0.36107370943241124  1.0000
  C   C39       1.0  0.2393847195941834  0.2040698112789161  0.42719246224209473  1.0000
  C   C40       1.0  0.16975683480952353  0.1536022380383335  0.3927283901565626  1.0000
  C   C41       1.0  0.1256066850420312  0.21707221879217342  0.2924677115375862  1.0000
  H   H20       1.0  0.7538178540417335  0.40575582632906193  0.4320031764651069  1.0000
  H   H21       1.0  0.012290099091319734  0.4038405861539296  0.324052589270359  1.0000
  H   H22       1.0  0.012114105915830287  0.4010930743424235  0.9072479973229237  1.0000
  H   H23       1.0  0.8028518227088539  0.4030546441758068  0.10650734165353806  1.0000
  H   H24       1.0  0.872303507601478  0.4038877226544262  0.6629774494858052  1.0000
  H   H25       1.0  0.2420941198654081  0.4699305177245341  0.21079426948271188  1.0000
  H   H26       1.0  0.3192389796813633  0.35660880363952896  0.38754056061254105  1.0000
  H   H27       1.0  0.27350077597742595  0.15473563892874975  0.504764994121532  1.0000
  H   H28       1.0  0.15010199845031982  0.06487779094379542  0.4433426570286972  1.0000
  H   H29       1.0  0.07242162718786327  0.17500553519476122  0.2658574850797726  1.0000
  Zn  Zn1       1.0  0.8203668238936462  0.4040716504914376  0.6069372143529272  1.0000
  Zn  Zn2       1.0  0.9849954997997239  0.40066228301037565  0.6148171620964192  1.0000
  C   C42       1.0  0.9026352826706141  0.3972399655342156  0.8480704663241423  1.0000
  C   C43       1.0  0.9027288391175453  0.4074955694144288  0.37368412381714466  1.0000
  C   C44       1.0  0.9027368861496466  0.6395630906685488  0.6057280481347604  1.0000
  C   C45       1.0  0.902627179086993  0.16517088512357891  0.6160266083866683  1.0000
  O   O4        1.0  0.9651942110652941  0.4079422877807084  0.4250601879702285  1.0000
  O   O5        1.0  0.9651192663336774  0.39420463632200375  0.8026747262292164  1.0000
  O   O6        1.0  0.9652004699600004  0.5898836421684808  0.6069814687622466  1.0000
  O   O7        1.0  0.9651129512836392  0.2122632923689316  0.6207533453753371  1.0000
  O   O8        1.0  0.8402493162300454  0.5924706422977439  0.6010010283781393  1.0000
  O   O9        1.0  0.840168112975556  0.39679319677264613  0.7966942167690974  1.0000
  O   O10       1.0  0.840243058053402  0.41053080266730846  0.4190781171179959  1.0000
  O   O11       1.0  0.8401617982473931  0.21485179798569415  0.6147713718890964  1.0000
