data_image0
_chemical_formula_structural       NC8NH4C7NH5C7OH5Zn2C4O8
_chemical_formula_sum              "N3 C26 H14 O9 Zn2"
_cell_length_a       13.859017124695912
_cell_length_b       9.275154477615127
_cell_length_c       9.274074313596557
_cell_angle_alpha    86.3499061385644
_cell_angle_beta     90.23359480828564
_cell_angle_gamma    89.43373790894346

_space_group_name_H-M_alt    "P 1"
_space_group_IT_number       1

loop_
  _space_group_symop_operation_xyz
  'x, y, z'

loop_
  _atom_site_type_symbol
  _atom_site_label
  _atom_site_symmetry_multiplicity
  _atom_site_fract_x
  _atom_site_fract_y
  _atom_site_fract_z
  _atom_site_occupancy
  N   N1        1.0  0.893935341381725  0.5623514306983024  0.41640306726729  1.0000
  C   C1        1.0  0.8215821712201696  0.538946158567583  0.36015064912936645  1.0000
  C   C2        1.0  0.7315791205948509  0.5098334152621262  0.2901798721802997  1.0000
  C   C3        1.0  0.6439623039405197  0.5382153781751905  0.3583925791049569  1.0000
  C   C4        1.0  0.5563487910991737  0.5098346351421343  0.2901792977547113  1.0000
  C   C5        1.0  0.5565344976910146  0.453064225897027  0.15373237508779858  1.0000
  C   C6        1.0  0.6439687489034  0.42479135144309854  0.08578223649023498  1.0000
  C   C7        1.0  0.7313998752154705  0.45306188849843504  0.1537335440950694  1.0000
  C   C8        1.0  0.4663423250583735  0.5389470800384103  0.3601501547979966  1.0000
  N   N2        1.0  0.3939864642647988  0.5623517511206122  0.41640285254218856  1.0000
  H   H1        1.0  0.6439597601054533  0.5821578726736523  0.4640057695587354  1.0000
  H   H2        1.0  0.4892403416293515  0.4307265276499952  0.10004151553062095  1.0000
  H   H3        1.0  0.6439713486586324  0.38093859866323193  0.9803829335612951  1.0000
  H   H4        1.0  0.7986965934300493  0.4307220997725171  0.10004367541357452  1.0000
  C   C9        1.0  0.14675323430384823  0.1389459479143449  0.41473509264713404  1.0000
  C   C10       1.0  0.11992957464412558  0.22087818575975904  0.287653803728084  1.0000
  C   C11       1.0  0.08527553203077098  0.1536589547129934  0.16730420369488333  1.0000
  C   C12       1.0  0.07687605818892917  0.0035905640453568403  0.17261851514176968  1.0000
  C   C13       1.0  0.1045862843941816  0.9204222313432987  0.2968030867074829  1.0000
  C   C14       1.0  0.14117791374668484  0.9857463122903298  0.41808331155376943  1.0000
  C   C15       1.0  0.057164093155718465  0.23915797643409029  0.03869125422714759  1.0000
  N   N3        1.0  0.03457028664660333  0.3078836070844764  0.9353193867656082  1.0000
  H   H5        1.0  0.16640492159173337  0.21908816943458545  0.7685274712812402  1.0000
  H   H6        1.0  0.12385870870437034  0.33779563015718717  0.28337721775498026  1.0000
  H   H7        1.0  0.04972811767181961  0.9505564643134526  0.08012228915814523  1.0000
  H   H8        1.0  0.09951923707805067  0.8039533872083557  0.2966762443950566  1.0000
  H   H9        1.0  0.15850139136809172  0.6893018484536078  0.6551342671523537  1.0000
  C   C16       1.0  0.14283760750557684  0.5581934345903339  0.9931515840942953  1.0000
  C   C17       1.0  0.058427552193814236  0.6007605333226174  0.06320877588839902  1.0000
  C   C18       1.0  0.9786926303396949  0.6549150895840354  0.9842406969866581  1.0000
  C   C19       1.0  0.9815014730456537  0.6679429848936655  0.8330122053461979  1.0000
  C   C20       1.0  0.06462019567133903  0.6236351587409047  0.7618082454371797  1.0000
  C   C21       1.0  0.14509350273458743  0.5664987574306615  0.8396668276776404  1.0000
  C   C22       1.0  0.8981201363657356  0.7260625659119193  0.7478513297019163  1.0000
  O   O1        1.0  0.8222441570362711  0.7662355772175872  0.8087164765262671  1.0000
  H   H10       1.0  0.3788378450985117  0.5214591460084516  0.09979481915132096  1.0000
  H   H11       1.0  0.9151659387645137  0.6879218665784852  0.041772880123195584  1.0000
  H   H12       1.0  0.06569226299806162  0.6306224889694481  0.6446792093114055  1.0000
  H   H13       1.0  0.3037645906771107  0.5365313955910038  0.5620824535191913  1.0000
  H   H14       1.0  0.9014888032682714  0.7348143373191335  0.6310164147550421  1.0000
  Zn  Zn1       1.0  0.038239344294455295  0.5623477553496203  0.4164113179222324  1.0000
  Zn  Zn2       1.0  0.2496825626592749  0.5623437807977432  0.41640637701588645  1.0000
  C   C23       1.0  0.14470278074591092  0.559184956400304  0.679634567453252  1.0000
  C   C24       1.0  0.14322142356034476  0.565508400329807  0.15318327609109383  1.0000
  C   C25       1.0  0.1422114907558758  0.8256266466305895  0.41170679072144484  1.0000
  C   C26       1.0  0.14571265300974587  0.2990649785662076  0.42111112281891017  1.0000
  O   O2        1.0  0.22359187657335777  0.5679555710794577  0.2068894739134537  1.0000
  O   O3        1.0  0.22481284406454005  0.5567336772735123  0.6259242003881553  1.0000
  O   O4        1.0  0.22280001818976536  0.7718887264740195  0.40957063099673297  1.0000
  O   O5        1.0  0.22560462994097397  0.35280053113425136  0.423242935277267  1.0000
  O   O6        1.0  0.062317204857532664  0.7718910050159644  0.40957475965496304  1.0000
  O   O7        1.0  0.06433001911771741  0.5567376873516221  0.6259282590444875  1.0000
  O   O8        1.0  0.06310904740340728  0.5679595139112961  0.20689179946978942  1.0000
  O   O9        1.0  0.06512180112295819  0.3528044647136406  0.4232453688553228  1.0000
