data_image0
_chemical_formula_structural       NC12NC2H8C13OH12C13OH12Zn2C4O8
_chemical_formula_sum              "N2 C44 H32 O10 Zn2"
_cell_length_a       19.240039667572717
_cell_length_b       10.299150109392551
_cell_length_c       10.299153481560893
_cell_angle_alpha    85.56204594622189
_cell_angle_beta     90.01662043824444
_cell_angle_gamma    89.97992514300192

_space_group_name_H-M_alt    "P 1"
_space_group_IT_number       1

loop_
  _space_group_symop_operation_xyz
  'x, y, z'

loop_
  _atom_site_type_symbol
  _atom_site_label
  _atom_site_symmetry_multiplicity
  _atom_site_fract_x
  _atom_site_fract_y
  _atom_site_fract_z
  _atom_site_occupancy
  N   N1        1.0  0.6539881151839635  0.42084667225927486  0.5669763947372914  1.0000
  C   C1        1.0  0.5938397463382084  0.4208467562163032  0.5669763127723579  1.0000
  C   C2        1.0  0.5190217091537284  0.42084687345954097  0.5669761754283813  1.0000
  C   C3        1.0  0.4825761413546539  0.35641543427878086  0.6704099907146277  1.0000
  C   C4        1.0  0.4099054274903198  0.35630457680771155  0.6704965696388718  1.0000
  C   C5        1.0  0.37268947416369047  0.42084696594623533  0.5669759477146779  1.0000
  C   C6        1.0  0.4098491992193888  0.48538954215934776  0.463455520272323  1.0000
  C   C7        1.0  0.48251992198197524  0.48527844921622876  0.4635422217744427  1.0000
  C   C8        1.0  0.2954843837240114  0.42084688724283265  0.5669758523237136  1.0000
  C   C9        1.0  0.2583243234200733  0.3075928568739488  0.6088834298409969  1.0000
  C   C10       1.0  0.1856536008044327  0.30769973120447647  0.608792069171047  1.0000
  C   C11       1.0  0.1491520968345036  0.42084675808261274  0.5669759132761363  1.0000
  C   C12       1.0  0.07433405973948738  0.4208466444243551  0.5669761619757456  1.0000
  N   N2        1.0  0.014185742927397396  0.4208466036760532  0.566976370410065  1.0000
  C   C13       1.0  0.18559810369875127  0.5339938607744833  0.5251597044655862  1.0000
  C   C14       1.0  0.2582687656260945  0.534100915179067  0.5250681811416309  1.0000
  H   H1        1.0  0.5103129037492049  0.30653146767204414  0.7511680393281468  1.0000
  H   H2        1.0  0.3828340405682933  0.3072191787614334  0.752369877854328  1.0000
  H   H3        1.0  0.38273405534031907  0.5344749672410638  0.3815821611992809  1.0000
  H   H4        1.0  0.5102129311121252  0.5351623156563101  0.3827844489910458  1.0000
  H   H5        1.0  0.28543916297369193  0.2184421020034373  0.6400800202473742  1.0000
  H   H6        1.0  0.1579603148304769  0.2194486168433543  0.6410213458554743  1.0000
  H   H7        1.0  0.15786156623177927  0.6222449506022721  0.49293044233962  1.0000
  H   H8        1.0  0.28534040486788154  0.6232517492156475  0.4938715459378369  1.0000
  C   C15       1.0  0.8341557953417125  0.03944705865006349  0.5671204924925609  1.0000
  C   C16       1.0  0.8328969579423724  0.027694145247125764  0.7039319971360799  1.0000
  C   C17       1.0  0.8321981845916625  0.9046004698986294  0.7730346380373259  1.0000
  C   C18       1.0  0.8327628989519902  0.7924386643371061  0.7035686001127555  1.0000
  C   C19       1.0  0.8340247404452551  0.8022362039288783  0.5668434949295229  1.0000
  C   C20       1.0  0.8347157260915757  0.9262011155805897  0.49941845204604074  1.0000
  C   C21       1.0  0.830860403342201  0.8931489367419654  0.9176755747721503  1.0000
  C   C22       1.0  0.7881337790560211  0.8002941907988829  0.985697378323537  1.0000
  C   C23       1.0  0.7868519018092521  0.7895997188476888  0.12180435523968147  1.0000
  C   C24       1.0  0.8287293357477332  0.8706022767197465  0.19235004024831143  1.0000
  C   C25       1.0  0.8707911150722746  0.9644108981258381  0.12497081205286245  1.0000
  C   C26       1.0  0.8720891257071014  0.9752811669983633  0.988863546419056  1.0000
  C   C27       1.0  0.8258904525261016  0.8614645657391706  0.33843713969076916  1.0000
  O   O1        1.0  0.7739494505043975  0.9446550606182305  0.3786780332495535  1.0000
  H   H9        1.0  0.8360803667966014  0.26892406947288977  0.3088823664016967  1.0000
  H   H10       1.0  0.831493485256353  0.11448605841077054  0.7569408752394999  1.0000
  H   H11       1.0  0.8331677068057792  0.6973345371806453  0.7564024142605199  1.0000
  H   H12       1.0  0.8356870555189123  0.9344744596014861  0.39395828727926774  1.0000
  H   H13       1.0  0.8344633089018426  0.47852921328242476  0.5142542242701473  1.0000
  H   H14       1.0  0.7548871740953766  0.7372675073251614  0.9335883949426782  1.0000
  H   H15       1.0  0.7530502747850465  0.7182875501261724  0.17218020807938317  1.0000
  H   H16       1.0  0.9027576078354518  0.028990810410799213  0.17782600563287534  1.0000
  H   H17       1.0  0.9059141658615834  0.0470390481287839  0.939294341410177  1.0000
  H   H18       1.0  0.8770206672648749  0.8893076552788612  0.3786073646013367  1.0000
  H   H19       1.0  0.8146014982806677  0.7594563654389366  0.37624993789209815  1.0000
  H   H20       1.0  0.7742219871359945  0.9350112809072643  0.47530526161512615  1.0000
  C   C28       1.0  0.8340306017990617  0.4206942114731041  0.18560948549366188  1.0000
  C   C29       1.0  0.7621776212876075  0.39631208643532  0.1862898342998549  1.0000
  C   C30       1.0  0.7258726869481879  0.38411261588073375  0.06946716871315739  1.0000
  C   C31       1.0  0.762341545859334  0.39662941028539916  0.9509817514251947  1.0000
  C   C32       1.0  0.8341499483913052  0.4209890993609703  0.9483544633990723  1.0000
  C   C33       1.0  0.8695751838315856  0.4328756557604658  0.06620185395309797  1.0000
  C   C34       1.0  0.6499063641525735  0.3583477891290217  0.07115953318215552  1.0000
  C   C35       1.0  0.6059380394240257  0.423589681790882  0.9784682185993923  1.0000
  C   C36       1.0  0.5344492376746949  0.3993874052327596  0.9801387723595418  1.0000
  C   C37       1.0  0.5057256536129547  0.30866804625475464  0.07363173062638073  1.0000
  C   C38       1.0  0.5492275317919934  0.24452251957233506  0.1672411774132401  1.0000
  C   C39       1.0  0.6207196357828053  0.26869514641360714  0.16574878408046193  1.0000
  C   C40       1.0  0.42870850723570864  0.2853795485346498  0.07755660488221361  1.0000
  O   O2        1.0  0.3974763002569544  0.3729744837555973  0.15703197488933476  1.0000
  H   H21       1.0  0.9695681298658029  0.46754638121519876  0.39155336102500976  1.0000
  H   H22       1.0  0.7341581728492698  0.38854777491174397  0.2777682398227854  1.0000
  H   H23       1.0  0.7347677918620112  0.38557627701261765  0.860806651733941  1.0000
  H   H24       1.0  0.9249627767276852  0.4516686587534975  0.06489116748095447  1.0000
  H   H25       1.0  0.861760775911104  0.43044461527350175  0.6198618328633764  1.0000
  H   H26       1.0  0.6267017983673799  0.4948514782064058  0.9058846679410189  1.0000
  H   H27       1.0  0.5014642291705538  0.45167182010489926  0.9086389557377481  1.0000
  H   H28       1.0  0.5278225102710287  0.17546729272324946  0.2412638072825002  1.0000
  H   H29       1.0  0.6532869712538001  0.2162102156076371  0.2377718870675019  1.0000
  H   H30       1.0  0.417695063439525  0.18358414849342908  0.11641246387676163  1.0000
  H   H31       1.0  0.4067070073061005  0.2987458803262983  0.9774208932730969  1.0000
  H   H32       1.0  0.346955432743749  0.353619371166104  0.15633563070917922  1.0000
  Zn  Zn1       1.0  0.7579333807925359  0.42084318788176006  0.5669838774724387  1.0000
  Zn  Zn2       1.0  0.9102404995683377  0.4208394978190577  0.5669794905218117  1.0000
  C   C41       1.0  0.8341267145028797  0.41575926425830473  0.8041812219631542  1.0000
  C   C42       1.0  0.834048828785382  0.4259250602028761  0.3297822728556981  1.0000
  C   C43       1.0  0.8340451249185442  0.6580508565134028  0.5617206147487882  1.0000
  C   C44       1.0  0.8341303666768743  0.18363190754773107  0.5722429498775377  1.0000
  O   O3        1.0  0.8918547047222077  0.42767351426430134  0.37816631456195215  1.0000
  O   O4        1.0  0.891918417679903  0.4140070295788334  0.7557934771691668  1.0000
  O   O5        1.0  0.8918517541015979  0.6096605550611827  0.5600048209265429  1.0000
  O   O6        1.0  0.8919213163115796  0.23201999803653411  0.5739548734271165  1.0000
  O   O7        1.0  0.776252512074348  0.6096626876669542  0.5600084945617989  1.0000
  O   O8        1.0  0.7763191753705501  0.4140107225873222  0.755797080991615  1.0000
  O   O9        1.0  0.7762554622225729  0.42767716140951967  0.378168356985483  1.0000
  O   O10       1.0  0.7763220738259321  0.23202363592984088  0.5739570132227735  1.0000
