data_image0
_chemical_formula_structural       NC5NC3H4C7NH5C8H8Zn2C4O8
_chemical_formula_sum              "N3 C27 H17 Zn2 O8"
_cell_length_a       13.859018345313864
_cell_length_b       9.275154477615127
_cell_length_c       9.275657083861812
_cell_angle_alpha    86.07548322511155
_cell_angle_beta     89.50283416094544
_cell_angle_gamma    89.43370600770291

_space_group_name_H-M_alt    "P 1"
_space_group_IT_number       1

loop_
  _space_group_symop_operation_xyz
  'x, y, z'

loop_
  _atom_site_type_symbol
  _atom_site_label
  _atom_site_symmetry_multiplicity
  _atom_site_fract_x
  _atom_site_fract_y
  _atom_site_fract_z
  _atom_site_occupancy
  N   N1        1.0  0.9074050562145859  0.5697557077333535  0.41613816844264484  1.0000
  C   C1        1.0  0.8350135218618135  0.5304853836157966  0.46723904137996786  1.0000
  C   C2        1.0  0.7449627063394123  0.48163836059857945  0.5308017302027797  1.0000
  C   C3        1.0  0.6573924199937307  0.529258488828459  0.4688358938353572  1.0000
  C   C4        1.0  0.5697324045299877  0.481638069571204  0.530801603491553  1.0000
  C   C5        1.0  0.4797736435531286  0.5304852704532597  0.46723894361394347  1.0000
  N   N2        1.0  0.4074561542852823  0.5697556734877727  0.4161380992770188  1.0000
  C   C6        1.0  0.56982514046872  0.38638343919337803  0.6547516900834834  1.0000
  C   C7        1.0  0.6572130578561433  0.33894662279037235  0.7164790672723884  1.0000
  C   C8        1.0  0.7446904808733997  0.386383735337626  0.6547518949251097  1.0000
  H   H1        1.0  0.6574618461983281  0.602988170994804  0.3728951929885651  1.0000
  H   H2        1.0  0.5024943509489141  0.3489015249786187  0.7035246049413757  1.0000
  H   H3        1.0  0.6571437086934794  0.2653666261993579  0.812225182721728  1.0000
  H   H4        1.0  0.8119506066143461  0.34890205700632304  0.7035250323780948  1.0000
  C   C9        1.0  0.1602371153145363  0.1463578086093167  0.4144699963658831  1.0000
  C   C10       1.0  0.13449438846371176  0.2288843128124629  0.2873674177981778  1.0000
  C   C11       1.0  0.10086402078656809  0.16222787683363427  0.16699765286581858  1.0000
  C   C12       1.0  0.09241934507714555  0.01213464314566104  0.1723128515246788  1.0000
  C   C13       1.0  0.119073277354669  0.9283855886374613  0.29651822794340776  1.0000
  C   C14       1.0  0.1546333158806228  0.9931425211769435  0.41781877415816004  1.0000
  C   C15       1.0  0.0738465428576498  0.24832832819379005  0.03836315684141067  1.0000
  N   N3        1.0  0.052132000733602794  0.3175373542186608  0.9349739714675982  1.0000
  H   H5        1.0  0.17687950671517805  0.22484564861174697  0.768321627241676  1.0000
  H   H6        1.0  0.1384598980624936  0.34582175155154415  0.2830901169425619  1.0000
  H   H7        1.0  0.06605816308207313  0.9595330872080161  0.07980112738315337  1.0000
  H   H8        1.0  0.11400730936357137  0.811917341956385  0.2963913627493455  1.0000
  H   H9        1.0  0.16994047932230846  0.6955895711224122  0.6549094317896089  1.0000
  C   C16       1.0  0.15990740221416283  0.5675766607353172  0.9928158884010356  1.0000
  C   C17       1.0  0.20916231036167487  0.6774849356125453  0.05819091203698501  1.0000
  C   C18       1.0  0.2498564566302157  0.7935641626636047  0.9749113738110302  1.0000
  C   C19       1.0  0.24273425129067872  0.7987514630824974  0.8242930016587708  1.0000
  C   C20       1.0  0.1955590997324383  0.6894887221052308  0.7574679268884266  1.0000
  C   C21       1.0  0.15496301958920222  0.5719236294166388  0.8394728659148423  1.0000
  C   C22       1.0  0.303534545237524  0.9091841628643795  0.04656850295807757  1.0000
  C   C23       1.0  0.4097913320335017  0.8680419650595075  0.06425040684480465  1.0000
  H   H10       1.0  0.2141688898169385  0.6748118705666352  0.17490536660836464  1.0000
  H   H11       1.0  0.27468026982015575  0.8868740038826128  0.758255260087978  1.0000
  H   H12       1.0  0.04213730290037642  0.40575439887633363  0.570981341232069  1.0000
  H   H13       1.0  0.2975576112840055  0.01385492718221303  0.9811421289212904  1.0000
  H   H14       1.0  0.27133391695105225  0.925513356333608  0.15450957588175118  1.0000
  H   H15       1.0  0.41733905294891327  0.7654738119618334  0.13259297243927137  1.0000
  H   H16       1.0  0.44383483208568797  0.8547723351234099  0.9570231149357112  1.0000
  H   H17       1.0  0.448021336673144  0.9545919362562183  0.11715928557649691  1.0000
  Zn  Zn1       1.0  0.05170897678320418  0.5697518705501249  0.4161464672043482  1.0000
  Zn  Zn2       1.0  0.26315221934879296  0.5697477385032939  0.41614159393514494  1.0000
  C   C24       1.0  0.15593347472323413  0.5653581252643887  0.6794138304294777  1.0000
  C   C25       1.0  0.15893001749707691  0.5741433036749191  0.15287437934187187  1.0000
  C   C26       1.0  0.15572113034003163  0.8330526718148135  0.41144118585180633  1.0000
  C   C27       1.0  0.1591423007442776  0.30644702526392475  0.4208470939272536  1.0000
  O   O1        1.0  0.23884364849194464  0.5763392708046691  0.20658959679845346  1.0000
  O   O2        1.0  0.23650038199354917  0.5631579321827258  0.625694494994987  1.0000
  O   O3        1.0  0.23632782076966702  0.7793246716990068  0.40930469450122575  1.0000
  O   O4        1.0  0.23901613812753775  0.36017254104889784  0.4229792892464921  1.0000
  O   O5        1.0  0.07584498584929152  0.7793270680074623  0.4093087718870876  1.0000
  O   O6        1.0  0.07601753605400849  0.5631620603546907  0.6256985023672255  1.0000
  O   O7        1.0  0.07836081307071249  0.576343339834497  0.20659187078047017  1.0000
  O   O8        1.0  0.07853330213942716  0.3601766003211565  0.4229816712683181  1.0000
