data_image0
_chemical_formula_structural       NC5NC3H4C6ClH5C8H10Zn2C4O8
_chemical_formula_sum              "N2 C26 H19 Cl1 Zn2 O8"
_cell_length_a       13.859018345313864
_cell_length_b       9.276545438789551
_cell_length_c       9.275657083861812
_cell_angle_alpha    85.88220868425292
_cell_angle_beta     89.50283416094544
_cell_angle_gamma    89.40960550048821

_space_group_name_H-M_alt    "P 1"
_space_group_IT_number       1

loop_
  _space_group_symop_operation_xyz
  'x, y, z'

loop_
  _atom_site_type_symbol
  _atom_site_label
  _atom_site_symmetry_multiplicity
  _atom_site_fract_x
  _atom_site_fract_y
  _atom_site_fract_z
  _atom_site_occupancy
  N   N1        1.0  0.9069913713712965  0.569898455742897  0.4108344805368791  1.0000
  C   C1        1.0  0.8346101861051994  0.5306245605215218  0.46206803497492976  1.0000
  C   C2        1.0  0.7445722434603816  0.48177309552949726  0.5257957618122124  1.0000
  C   C3        1.0  0.6569894075662662  0.5293975541647289  0.4636690327040153  1.0000
  C   C4        1.0  0.5693419417276531  0.4817728044756565  0.5257956360842719  1.0000
  C   C5        1.0  0.4793703078263365  0.5306244473486939  0.4620679375912439  1.0000
  N   N2        1.0  0.4070424694510176  0.5698984214942022  0.4108344114869573  1.0000
  C   C6        1.0  0.569459780551278  0.3865095119800123  0.6500675567224898  1.0000
  C   C7        1.0  0.656860199178138  0.3390683818413809  0.7119552073018369  1.0000
  C   C8        1.0  0.7443251208779131  0.38650980815119074  0.6500677605635421  1.0000
  H   H1        1.0  0.6570394034532271  0.6031339410465415  0.3674792235267519  1.0000
  H   H2        1.0  0.5021388688103722  0.3490241892930801  0.6989671106326409  1.0000
  H   H3        1.0  0.6568102408857913  0.2654816941467739  0.8079499253433529  1.0000
  H   H4        1.0  0.8115951243355962  0.34902472136916507  0.6989675362718135  1.0000
  C   C9        1.0  0.15993501044046465  0.14646205431748505  0.4105968306145186  1.0000
  C   C10       1.0  0.16106839765514414  0.2294303234141379  0.2775423676503983  1.0000
  C   C11       1.0  0.15340661591730087  0.1636826037872332  0.14738385925319286  1.0000
  C   C12       1.0  0.144423784246918  0.014096050454384555  0.14827735711050627  1.0000
  C   C13       1.0  0.1447931498268098  0.9295768256825515  0.27888960364618165  1.0000
  C   C14       1.0  0.154108072227914  0.9933237872720005  0.4110845709172437  1.0000
  Cl  Cl1       1.0  0.15360913562980638  0.2694589716382185  0.9828104756490975  1.0000
  H   H5        1.0  0.20797498899564082  0.41058480046896606  0.637236243896599  1.0000
  H   H6        1.0  0.1656060804363306  0.346136233458298  0.27468829793939364  1.0000
  H   H7        1.0  0.13807419317326092  0.9628573929349676  0.04757896307494968  1.0000
  H   H8        1.0  0.14009121162437443  0.8133027498624683  0.2762388334579404  1.0000
  H   H9        1.0  0.12041690517014224  0.6957851398926738  0.6441862661224951  1.0000
  C   C15       1.0  0.15949429162501438  0.5677192105900648  0.9875195627779183  1.0000
  C   C16       1.0  0.20872023514621896  0.6776374801355041  0.052523242525555285  1.0000
  C   C17       1.0  0.2493837905294296  0.7937272630192513  0.9688515107948484  1.0000
  C   C18       1.0  0.2422602181570792  0.7989150351528227  0.818215612461693  1.0000
  C   C19       1.0  0.19511386110466913  0.6896423582099054  0.7517597005330683  1.0000
  C   C20       1.0  0.15454876342367596  0.5720665745692812  0.8341618533152051  1.0000
  C   C21       1.0  0.3030314092735422  0.9093577772922545  0.040117998013531324  1.0000
  C   C22       1.0  0.4092990384595614  0.8682118381620181  0.05793890784611322  1.0000
  H   H10       1.0  0.11776586063113849  0.33768635286588466  0.28521414080096985  1.0000
  H   H11       1.0  0.21372751904644088  0.6749641720105515  0.16924672850397915  1.0000
  H   H12       1.0  0.27418301335358697  0.8870455895038576  0.7518801338280157  1.0000
  H   H13       1.0  0.1925921852916015  0.6952616728607708  0.6347886166089514  1.0000
  H   H14       1.0  0.04176683806604718  0.4058822331892511  0.5662317597735869  1.0000
  H   H15       1.0  0.29702689095863644  0.014038059997687924  0.9743379759128673  1.0000
  H   H16       1.0  0.2708264776806344  0.9256884556803484  0.1480038999666604  1.0000
  H   H17       1.0  0.4168737896256871  0.7656343578807412  0.12662801747314534  1.0000
  H   H18       1.0  0.44334603551752566  0.8549410015328965  0.9507564496493357  1.0000
  H   H19       1.0  0.4475062341926359  0.9547696799057523  0.11055536271005395  1.0000
  Zn  Zn1       1.0  0.051295292951144766  0.5698946182107287  0.4108427922631619  1.0000
  Zn  Zn2       1.0  0.2627385366056705  0.5698904857881442  0.4108379329547849  1.0000
  C   C23       1.0  0.15552094879480372  0.5655004733733995  0.6741250005075627  1.0000
  C   C24       1.0  0.1585151763707235  0.5742864506768561  0.1475558671934447  1.0000
  C   C25       1.0  0.15523805765327814  0.8332193631152494  0.4052479041594763  1.0000
  C   C26       1.0  0.15879800683265177  0.3065658289169466  0.4164330394006286  1.0000
  O   O1        1.0  0.23842822865241062  0.5764826175000588  0.20126366519982097  1.0000
  O   O2        1.0  0.23608843589198303  0.5633000802139909  0.6204130988013776  1.0000
  O   O3        1.0  0.23585890726653597  0.7794864771659122  0.4032929420385784  1.0000
  O   O4        1.0  0.2386576856869964  0.3602962303095354  0.41838371388392015  1.0000
  O   O5        1.0  0.07537607171465033  0.7794888736922787  0.4032970113281029  1.0000
  O   O6        1.0  0.07560558886452638  0.5633042087613571  0.6204170922258815  1.0000
  O   O7        1.0  0.07794539215884888  0.5764866868999101  0.2012659254339253  1.0000
  O   O8        1.0  0.07817484862912735  0.36030028995092955  0.4183860821908014  1.0000
