data_image0
_chemical_formula_structural       NC11NC3H8C7OC4NC3H8C6NCOC6H11Zn2C4O8
_chemical_formula_sum              "N4 C45 H27 O10 Zn2"
_cell_length_a       17.807433833752565
_cell_length_b       10.299371701877257
_cell_length_c       10.299662537453274
_cell_angle_alpha    85.55951811676591
_cell_angle_beta     88.51134067563713
_cell_angle_gamma    90.69533246875125

_space_group_name_H-M_alt    "P 1"
_space_group_IT_number       1

loop_
  _space_group_symop_operation_xyz
  'x, y, z'

loop_
  _atom_site_type_symbol
  _atom_site_label
  _atom_site_symmetry_multiplicity
  _atom_site_fract_x
  _atom_site_fract_y
  _atom_site_fract_z
  _atom_site_occupancy
  N   N1        1.0  0.7077580465857198  0.43903016074603096  0.5351411780349897  1.0000
  C   C1        1.0  0.6569260539304279  0.4042784020958021  0.6016923401957996  1.0000
  C   C2        1.0  0.5936859308780625  0.36105007999555716  0.6844734925044411  1.0000
  C   C3        1.0  0.6053900219244791  0.2974537155591188  0.8071714550054179  1.0000
  C   C4        1.0  0.544057771934315  0.25590602925438527  0.8876692362705562  1.0000
  C   C5        1.0  0.47086696493820046  0.27764119791371045  0.8461097504920665  1.0000
  C   C6        1.0  0.4581861582955594  0.34139228653874365  0.7229516377719474  1.0000
  C   C7        1.0  0.3804276427360099  0.3644586198128878  0.6786119257830476  1.0000
  C   C8        1.0  0.3616597247684316  0.34763479642148476  0.5490232210120172  1.0000
  C   C9        1.0  0.2884389771713259  0.3693312534394393  0.5074196491060927  1.0000
  C   C10       1.0  0.23304321678818513  0.4081703692995247  0.594584606770221  1.0000
  C   C11       1.0  0.1576859985851806  0.4305258028735068  0.5516199510390192  1.0000
  N   N2        1.0  0.0971041680008882  0.44849791066585065  0.5170794947782156  1.0000
  C   C12       1.0  0.2511196643392495  0.4252049690531494  0.7236422430684459  1.0000
  C   C13       1.0  0.3242876123055559  0.4034734863906017  0.7655012364102756  1.0000
  C   C14       1.0  0.5203757174949494  0.382935401757011  0.6424702710008845  1.0000
  H   H1        1.0  0.661849532874918  0.2800267039873052  0.8405313813311429  1.0000
  H   H2        1.0  0.5532380377574843  0.2064181638692857  0.9823894352102955  1.0000
  H   H3        1.0  0.4242156127877209  0.24306133528255416  0.9095376336719385  1.0000
  H   H4        1.0  0.4033440381960328  0.3160185847921555  0.4802941899611522  1.0000
  H   H5        1.0  0.27500949648655937  0.3554879050411244  0.4073783824447428  1.0000
  H   H6        1.0  0.20871851030335534  0.45559834372180186  0.7918560601434299  1.0000
  H   H7        1.0  0.3371888446442782  0.41886231581196043  0.8653602967038154  1.0000
  H   H8        1.0  0.5118940383122556  0.4337855351276634  0.5479848782594927  1.0000
  C   C15       1.0  0.9023954186192626  0.0623927795834447  0.5259849736671354  1.0000
  C   C16       1.0  0.9060642632510586  0.0718743321910551  0.3891502620125611  1.0000
  C   C17       1.0  0.9070616828535844  0.9594669321943383  0.3201118007847372  1.0000
  C   C18       1.0  0.9060735132917948  0.836606121892559  0.3894672278965514  1.0000
  C   C19       1.0  0.9024739742720195  0.8251254479669778  0.5262465407936678  1.0000
  C   C20       1.0  0.9004580956940801  0.938616383330681  0.5937073484824864  1.0000
  C   C21       1.0  0.9117247216799621  0.9693542037866124  0.1756458959667364  1.0000
  O   O1        1.0  0.94789053275862  0.8845075116916074  0.11902245130277178  1.0000
  C   C22       1.0  0.8753472537764895  0.07541372377689082  0.09542148610379586  1.0000
  C   C23       1.0  0.9075392010408396  0.12088598732298395  0.9739581662155065  1.0000
  C   C24       1.0  0.873142689068934  0.21998244326185182  0.896763255015507  1.0000
  C   C25       1.0  0.9067923977392447  0.26667502933798654  0.77304616663239  1.0000
  N   N3        1.0  0.9338452635987812  0.3042061959486919  0.6735954114392033  1.0000
  C   C26       1.0  0.8059934801395011  0.2735128804849436  0.940050030565634  1.0000
  C   C27       1.0  0.7731675767359785  0.22781522898308237  0.05980321462008376  1.0000
  C   C28       1.0  0.8073483853865803  0.12901100650486885  0.13699673469782492  1.0000
  H   H9        1.0  0.9089918925172843  0.1668891645572601  0.33612797183530363  1.0000
  H   H10       1.0  0.9073992369659508  0.7498207914828167  0.3363936140154231  1.0000
  H   H11       1.0  0.8976300955662965  0.9305029173269904  0.6991971386031586  1.0000
  H   H12       1.0  0.9017235134476048  0.4932700420602201  0.578806479242205  1.0000
  H   H13       1.0  0.9596434088197904  0.08007374598864425  0.9399642538876822  1.0000
  H   H14       1.0  0.7789189471900461  0.3500934145518957  0.8810666936166496  1.0000
  H   H15       1.0  0.7209352464700454  0.26864097408911225  0.09265006755759586  1.0000
  H   H16       1.0  0.7801943791643022  0.09360687718229067  0.22841249000050579  1.0000
  C   C29       1.0  0.9024864254501198  0.44390090884582717  0.14473742638192855  1.0000
  C   C30       1.0  0.9791800740457922  0.47814050252151663  0.1373768867263332  1.0000
  C   C31       1.0  0.018035606060155418  0.4935104579223615  0.016974733050849622  1.0000
  C   C32       1.0  0.9790485834771243  0.47782723119727216  0.9022395821737095  1.0000
  C   C33       1.0  0.902382987512345  0.44361732403138127  0.9074940834524101  1.0000
  C   C34       1.0  0.864598848133663  0.42640432754229435  0.029288248803009065  1.0000
  N   N4        1.0  0.09627079594982613  0.5304985516245482  0.012874032997233446  1.0000
  C   C35       1.0  0.14943725792383544  0.49194128859156416  0.9161807854853802  1.0000
  O   O2        1.0  0.1357247361519176  0.3930494416972846  0.8552311204898412  1.0000
  C   C36       1.0  0.22157448630123808  0.5640242962644377  0.8905083640029474  1.0000
  C   C37       1.0  0.2306511439035299  0.6923155109700634  0.9264856438361333  1.0000
  C   C38       1.0  0.2988126201923413  0.7595286606750181  0.9011558417529417  1.0000
  C   C39       1.0  0.3584437937393567  0.6999515794621076  0.8393935025140213  1.0000
  C   C40       1.0  0.3499768992143786  0.573121578419065  0.8023824708389351  1.0000
  C   C41       1.0  0.28194346899028555  0.5054545093943326  0.8273770944886653  1.0000
  H   H17       1.0  0.7576435340718081  0.38051552061117366  0.36580072337635655  1.0000
  H   H18       1.0  0.009281360119623775  0.4920916741437096  0.22540546271585415  1.0000
  H   H19       1.0  0.008148449126061054  0.4944988073023789  0.8087819921428223  1.0000
  H   H20       1.0  0.8054790623760993  0.3999925658320489  0.03409816710973734  1.0000
  H   H21       1.0  0.8727316831900929  0.4321692327807469  0.5819423012941978  1.0000
  H   H22       1.0  0.11677887262678377  0.5782011645552649  0.09086166984682409  1.0000
  H   H23       1.0  0.18500816838389422  0.7417409347822945  0.9723944419553626  1.0000
  H   H24       1.0  0.30528552820682475  0.8581658091789067  0.9290056620522495  1.0000
  H   H25       1.0  0.4111265271131474  0.7522109040584162  0.8198497657226259  1.0000
  H   H26       1.0  0.3961755376601992  0.527126984093543  0.7542521031258231  1.0000
  H   H27       1.0  0.2767579187583966  0.4070712871488275  0.7980925937933847  1.0000
  Zn  Zn1       1.0  0.8201149253127161  0.44175887141477  0.5299364499130046  1.0000
  Zn  Zn2       1.0  0.9847472719836762  0.44575857640215283  0.5222948055332828  1.0000
  C   C42       1.0  0.9024003113788169  0.43849718691070305  0.7633150534079226  1.0000
  C   C43       1.0  0.9024636838491533  0.44902194316546806  0.28891624662339765  1.0000
  C   C44       1.0  0.902455958694952  0.6809545836290103  0.5210219826465321  1.0000
  C   C45       1.0  0.9024079801854178  0.20656298474411683  0.5312093886975929  1.0000
  O   O3        1.0  0.9649331685495509  0.45225281048506116  0.3344040096258598  1.0000
  O   O4        1.0  0.9648829684182889  0.4383010235399274  0.7120270849456107  1.0000
  O   O5        1.0  0.9649270619252257  0.6340884167186238  0.5163737555986794  1.0000
  O   O6        1.0  0.9648890188789115  0.25646542526801985  0.5300572442064797  1.0000
  O   O7        1.0  0.8399731222365416  0.6310520211854163  0.5221740138406954  1.0000
  O   O8        1.0  0.8399290288962662  0.43526618834627756  0.7178272744757088  1.0000
  O   O9        1.0  0.8399792292846274  0.4492179306168704  0.34020263769887205  1.0000
  O   O10       1.0  0.8399350795967516  0.25343053607468735  0.5358559696466905  1.0000
