data_image0
_chemical_formula_structural       NC12NC2H8C16H10C12IH9Zn2C4O8
_chemical_formula_sum              "N2 C46 H27 I1 Zn2 O8"
_cell_length_a       19.240039667572717
_cell_length_b       10.29914801576943
_cell_length_c       10.299773350644648
_cell_angle_alpha    85.52085607386434
_cell_angle_beta     90.00916568916979
_cell_angle_gamma    90.01219802926653

_space_group_name_H-M_alt    "P 1"
_space_group_IT_number       1

loop_
  _space_group_symop_operation_xyz
  'x, y, z'

loop_
  _atom_site_type_symbol
  _atom_site_label
  _atom_site_symmetry_multiplicity
  _atom_site_fract_x
  _atom_site_fract_y
  _atom_site_fract_z
  _atom_site_occupancy
  N   N1        1.0  0.6545164261201036  0.4218057902077405  0.5669087903121137  1.0000
  C   C1        1.0  0.5943680573053769  0.4218058742196395  0.5669087083431623  1.0000
  C   C2        1.0  0.5195500201658227  0.4218059915547154  0.5669085709937698  1.0000
  C   C3        1.0  0.48307781423244595  0.3573054979261127  0.6703451244477812  1.0000
  C   C4        1.0  0.41040706090708357  0.3571945823942413  0.6704317088615537  1.0000
  C   C5        1.0  0.3732177852195466  0.42180608419321075  0.5669083432768107  1.0000
  C   C6        1.0  0.41040418795718353  0.4864177729383312  0.46338517216174213  1.0000
  C   C7        1.0  0.4830748711791981  0.48630662185185103  0.4634718791655734  1.0000
  C   C8        1.0  0.296012694762788  0.4218060055528647  0.5669082478910803  1.0000
  C   C9        1.0  0.2588155652768576  0.30852360033445997  0.6088218300484953  1.0000
  C   C10       1.0  0.18614488125465928  0.30863053588650047  0.6087304641534828  1.0000
  C   C11       1.0  0.14968040783008746  0.42180587635153655  0.5669083088502385  1.0000
  C   C12       1.0  0.0748623706834629  0.4218057625274303  0.5669085575541135  1.0000
  N   N2        1.0  0.014714053844554903  0.421805721640379  0.5669087659889467  1.0000
  C   C13       1.0  0.1861634452662403  0.5349812926658302  0.5250861006275467  1.0000
  C   C14       1.0  0.2588341458526604  0.5350884084008767  0.5249945720697997  1.0000
  H   H1        1.0  0.5107939056575815  0.30736761757995334  0.751105287226689  1.0000
  H   H2        1.0  0.3833151660388447  0.3080545328337898  0.7523070768866207  1.0000
  H   H3        1.0  0.3833095520360235  0.5355578495681539  0.3815097532780043  1.0000
  H   H4        1.0  0.5107885512293314  0.5362444018475319  0.382711992220065  1.0000
  H   H5        1.0  0.2859013498298249  0.2193517007916579  0.6400231624218875  1.0000
  H   H6        1.0  0.15842273953456654  0.22035759443175018  0.640964423475163  1.0000
  H   H7        1.0  0.1584557635369932  0.6232542095774574  0.4928521558655823  1.0000
  H   H8        1.0  0.2859348401220915  0.6242603871398882  0.4937931948949254  1.0000
  C   C15       1.0  0.8345690997304024  0.04040434543525471  0.5670743104424549  1.0000
  C   C16       1.0  0.8186882642745242  0.050041554966433255  0.43360044494268024  1.0000
  C   C17       1.0  0.8106874036980524  0.9377981115800841  0.36576175819746926  1.0000
  C   C18       1.0  0.8187810082512185  0.8147898562566933  0.4331958549627999  1.0000
  C   C19       1.0  0.8346680462758871  0.8031971801929745  0.5667544732850214  1.0000
  C   C20       1.0  0.8424655146759908  0.9165208395839262  0.632871335748127  1.0000
  C   C21       1.0  0.7938875665776932  0.9490387226713343  0.2245625054880489  1.0000
  C   C22       1.0  0.8267632797162293  0.8680781362061417  0.13934487961854325  1.0000
  C   C23       1.0  0.8109275709212062  0.8787825884070367  0.006453585807954405  1.0000
  C   C24       1.0  0.7620535072791657  0.9703484552979854  0.9569756641620532  1.0000
  C   C25       1.0  0.7290509511419524  0.051289726590270306  0.04090935024597653  1.0000
  C   C26       1.0  0.7448371075385622  0.0408265340720697  0.17382159062534175  1.0000
  C   C27       1.0  0.7457762778664444  0.9812449980413346  0.8201516283009891  1.0000
  C   C28       1.0  0.732144273749097  0.9903707481626465  0.7055634776527246  1.0000
  C   C29       1.0  0.716181357893609  0.0010568785787559208  0.5713819217191984  1.0000
  C   C30       1.0  0.7025516415609654  0.010181246197163988  0.4568122788185737  1.0000
  H   H9        1.0  0.8406418068180237  0.3641720575977171  0.6184281705186712  1.0000
  H   H10       1.0  0.8134406096314103  0.14511181231736447  0.3816904080489587  1.0000
  H   H11       1.0  0.811739439867455  0.7279113882521386  0.3817803994925544  1.0000
  H   H12       1.0  0.8547127779004898  0.9083715215341799  0.7358240099438256  1.0000
  H   H13       1.0  0.8642236022336864  0.5740099971547709  0.8190176015724576  1.0000
  H   H14       1.0  0.8653754828314343  0.7976631440423221  0.17519453690901488  1.0000
  H   H15       1.0  0.8369248233605904  0.8158781245698413  0.9422787820584917  1.0000
  H   H16       1.0  0.6909914423814848  0.12226946460054397  0.003689801347410929  1.0000
  H   H17       1.0  0.7180295743521642  0.103341421723526  0.23719360784085297  1.0000
  H   H18       1.0  0.6905836532848194  0.018193211719712117  0.3562104717968144  1.0000
  C   C31       1.0  0.8345854552493011  0.4219068558603989  0.18554513797620809  1.0000
  C   C32       1.0  0.8975977895891382  0.49091624997812694  0.17917897517567027  1.0000
  C   C33       1.0  0.9295600377444415  0.525776013426225  0.05882319970179361  1.0000
  C   C34       1.0  0.8976646171180804  0.49070207516624187  0.9439094516068507  1.0000
  C   C35       1.0  0.8346517009679304  0.4216946861660598  0.9482836553648365  1.0000
  C   C36       1.0  0.8034652354115341  0.3876824323510565  0.06956951416616364  1.0000
  C   C37       1.0  0.996221557470439  0.5987798741761535  0.05314234935491258  1.0000
  C   C38       1.0  0.0071681372933460885  0.7018077768656985  0.13290976616522965  1.0000
  C   C39       1.0  0.06994631942182837  0.770405866286558  0.12736116347571125  1.0000
  C   C40       1.0  0.12247573587947991  0.7370434005469984  0.04238579625424066  1.0000
  C   C41       1.0  0.11219970107163844  0.6349017709414109  0.9627607482822834  1.0000
  C   C42       1.0  0.04949199709064998  0.5660776902876694  0.9679035040804234  1.0000
  I   I1        1.0  0.21712258779562132  0.8406910488378893  0.03432407515250713  1.0000
  H   H19       1.0  0.8105547019238474  0.3956761535990391  0.5154193968478684  1.0000
  H   H20       1.0  0.9224544233434169  0.5161653896842706  0.2681452498874939  1.0000
  H   H21       1.0  0.9216042642999849  0.5188921912829121  0.8507848254662567  1.0000
  H   H22       1.0  0.7548536981736963  0.33444596261179393  0.07371235901298223  1.0000
  H   H23       1.0  0.8106517154337541  0.39536398538383155  0.6224996880807314  1.0000
  H   H24       1.0  0.9668702827827343  0.7303881365433387  0.19828848859170511  1.0000
  H   H25       1.0  0.07764857871388917  0.8496895859126147  0.1889137808590411  1.0000
  H   H26       1.0  0.15283919296417858  0.6085578307137223  0.8970899472951026  1.0000
  H   H27       1.0  0.04299747243525352  0.48625303763480765  0.9065120232961595  1.0000
  Zn  Zn1       1.0  0.7584616901564071  0.4218023008399589  0.5669162731792465  1.0000
  Zn  Zn2       1.0  0.9107688081254645  0.421798613676847  0.5669118864732607  1.0000
  C   C43       1.0  0.834636953864734  0.4165606687660277  0.8041118828788743  1.0000
  C   C44       1.0  0.834595207829789  0.42704188443428664  0.3297164035051037  1.0000
  C   C45       1.0  0.834645322153097  0.6590145477070168  0.5616397310912356  1.0000
  C   C46       1.0  0.8345867873732371  0.1845864450397439  0.5721886251872712  1.0000
  O   O1        1.0  0.8923982376638785  0.4287581814492998  0.37809993488135185  1.0000
  O   O2        1.0  0.8924315022627677  0.4148405935775256  0.7557246486587952  1.0000
  O   O3        1.0  0.8924374807103527  0.6106251667133928  0.5599266700157193  1.0000
  O   O4        1.0  0.8923922072369397  0.2329736176327912  0.5738978161472781  1.0000
  O   O5        1.0  0.776838239069987  0.6106272968866888  0.5599303434998946  1.0000
  O   O6        1.0  0.7768322608156457  0.414844284207049  0.7557282522431075  1.0000
  O   O7        1.0  0.7767989961215057  0.42876182725333906  0.37810197708262283  1.0000
  O   O8        1.0  0.7767929656989758  0.23297725412014586  0.5738999557203648  1.0000
