data_image0
_chemical_formula_structural       NC8NC6H8C8H4C7F3H3Zn2C4O8
_chemical_formula_sum              "N2 C33 H15 F3 Zn2 O8"
_cell_length_a       17.457602349358154
_cell_length_b       9.27514070457351
_cell_length_c       9.272721663655245
_cell_angle_alpha    86.0082858104151
_cell_angle_beta     93.38388695232669
_cell_angle_gamma    92.27341969939751

_space_group_name_H-M_alt    "P 1"
_space_group_IT_number       1

loop_
  _space_group_symop_operation_xyz
  'x, y, z'

loop_
  _atom_site_type_symbol
  _atom_site_label
  _atom_site_symmetry_multiplicity
  _atom_site_fract_x
  _atom_site_fract_y
  _atom_site_fract_z
  _atom_site_occupancy
  N   N1        1.0  0.7239658286473883  0.6047733149468637  0.4789593772326697  1.0000
  C   C1        1.0  0.6625495509762552  0.5536997020948675  0.46701940525143887  1.0000
  C   C2        1.0  0.58614520468782  0.49017053524699233  0.45217669795601445  1.0000
  C   C3        1.0  0.5282641770855258  0.5352541478982058  0.5355042573696467  1.0000
  C   C4        1.0  0.45331418837289394  0.4740815071031599  0.5213508987859732  1.0000
  C   C5        1.0  0.39187971352213496  0.5216846872277474  0.6095975330063295  1.0000
  C   C6        1.0  0.3171473149027472  0.5418396948919251  0.547713335081141  1.0000
  C   C7        1.0  0.2592657359923085  0.5867197252176279  0.6311602206751978  1.0000
  C   C8        1.0  0.18308701914947348  0.6075334462275983  0.5668169779853109  1.0000
  N   N2        1.0  0.12185220902854471  0.6242605934264769  0.515085158127409  1.0000
  C   C9        1.0  0.2756286088725717  0.6117180380124725  0.7770569614274148  1.0000
  C   C10       1.0  0.3495807649550272  0.5919975269777957  0.8393729651411987  1.0000
  C   C11       1.0  0.4074542959203028  0.5473203958014583  0.7564351079451128  1.0000
  C   C12       1.0  0.4375220407208123  0.3670637335591045  0.4222760757367954  1.0000
  C   C13       1.0  0.495395202161598  0.3222921873382312  0.33939374729257943  1.0000
  C   C14       1.0  0.5695640618186816  0.38359315112310965  0.35415836644542975  1.0000
  H   H1        1.0  0.5414261913843571  0.6191929015282667  0.609761344560986  1.0000
  H   H2        1.0  0.3041636826371167  0.5245610969351262  0.4343336335219259  1.0000
  H   H3        1.0  0.23127227616790805  0.6463933751679093  0.8425127426849968  1.0000
  H   H4        1.0  0.3620582310831848  0.6110037173151323  0.9523430497670254  1.0000
  H   H5        1.0  0.4640951850032704  0.5309648448138568  0.8076031703138831  1.0000
  H   H6        1.0  0.38070246109765216  0.3166447907337395  0.41029788107747467  1.0000
  H   H7        1.0  0.4827474161385238  0.23958574465759153  0.2638091241869911  1.0000
  H   H8        1.0  0.6139178485446953  0.34795517209335847  0.2892675587878528  1.0000
  C   C15       1.0  0.9205755811116574  0.19095629670981487  0.4958019816158164  1.0000
  C   C16       1.0  0.9309036765264141  0.27417165000630495  0.36520398767205986  1.0000
  C   C17       1.0  0.9479520935607704  0.2089884344974109  0.24038428523517782  1.0000
  C   C18       1.0  0.9550831301385576  0.05942303747992938  0.24377300646754319  1.0000
  C   C19       1.0  0.9437603451535252  0.9745649703237451  0.37191744464901566  1.0000
  C   C20       1.0  0.9252497733926441  0.038066912063555725  0.49825569767567884  1.0000
  C   C21       1.0  0.9731595466277144  0.99251683267953  0.1150161122799731  1.0000
  C   C22       1.0  0.9882946903057815  0.9364843744523372  0.007219097694482371  1.0000
  H   H9        1.0  0.9348433493001971  0.2701331207273858  0.8514060369700591  1.0000
  H   H10       1.0  0.9563250880597302  0.27558442061835486  0.14145992617475733  1.0000
  H   H11       1.0  0.9319102515519546  0.7411960006264893  0.7375792489445416  1.0000
  H   H12       1.0  0.0015800956348306307  0.887297945257092  0.912595950001798  1.0000
  C   C23       1.0  0.9208684107367594  0.612072690566041  0.07339438463818215  1.0000
  C   C24       1.0  0.9528932478526456  0.4956959843699642  0.15874177331491812  1.0000
  C   C25       1.0  0.9916945838172386  0.3882283422089552  0.09609763816016036  1.0000
  C   C26       1.0  0.9961080916398  0.395084641529867  0.9453644513657968  1.0000
  C   C27       1.0  0.9636116704870578  0.5084360356475013  0.8589987497266991  1.0000
  C   C28       1.0  0.9249569806077194  0.6169505403938358  0.9206632395905437  1.0000
  C   C29       1.0  0.023848428759590156  0.2623214693667444  0.1890589055933578  1.0000
  F   F1        1.0  0.049935396643630225  0.305508333885846  0.3237608236711984  1.0000
  F   F2        1.0  0.08471811668370678  0.2056585467193579  0.1253226866485806  1.0000
  F   F3        1.0  0.9669097460280446  0.15573930205568476  0.2066762011751968  1.0000
  H   H13       1.0  0.8740974155901718  0.9531568136598103  0.14619003318557944  1.0000
  H   H14       1.0  0.024017882940078113  0.3117450130517496  0.8937876657246959  1.0000
  H   H15       1.0  0.788522568125447  0.85347969146311  0.7875677169574633  1.0000
  Zn  Zn1       1.0  0.8387872620903307  0.6103931025177233  0.4893928155277349  1.0000
  Zn  Zn2       1.0  0.00703075307704858  0.6186290480335475  0.5046634964645433  1.0000
  C   C30       1.0  0.9241507190266403  0.6102823622995228  0.7604945008327388  1.0000
  C   C31       1.0  0.9216691440796173  0.6187416989079486  0.23356212477933425  1.0000
  C   C32       1.0  0.9243345741695485  0.8779116836630655  0.4920427918922247  1.0000
  C   C33       1.0  0.9214852223361361  0.3511106422535193  0.502013900401626  1.0000
  O   O1        1.0  0.9857853708041477  0.6240990848722712  0.29311100712619087  1.0000
  O   O2        1.0  0.9877274010636745  0.6111747779120897  0.7125352935478377  1.0000
  O   O3        1.0  0.9878750129600521  0.8272888060505512  0.4957585654596206  1.0000
  O   O4        1.0  0.9856377010326329  0.4079850636187392  0.50988762186715  1.0000
  O   O5        1.0  0.8601802567214718  0.8210370841235333  0.48416868490641063  1.0000
  O   O6        1.0  0.8600326540123934  0.6049247884669615  0.7009453410941333  1.0000
  O   O7        1.0  0.8580906151569129  0.6178490351814798  0.28151932008733516  1.0000
  O   O8        1.0  0.8579429458472608  0.40173500423402125  0.498296042956835  1.0000
