data_image0
_chemical_formula_structural       NC9NC4H8C12H9C8H6Zn2C4O8
_chemical_formula_sum              "N2 C37 H23 Zn2 O8"
_cell_length_a       16.32274767691083
_cell_length_b       10.299137764757564
_cell_length_c       9.275144076552241
_cell_angle_alpha    85.93860642642608
_cell_angle_beta     89.93057160658579
_cell_angle_gamma    89.54283159448198

_space_group_name_H-M_alt    "P 1"
_space_group_IT_number       1

loop_
  _space_group_symop_operation_xyz
  'x, y, z'

loop_
  _atom_site_type_symbol
  _atom_site_label
  _atom_site_symmetry_multiplicity
  _atom_site_fract_x
  _atom_site_fract_y
  _atom_site_fract_z
  _atom_site_occupancy
  N   N1        1.0  0.7644652467157104  0.4021324399282591  0.3978100846380592  1.0000
  C   C1        1.0  0.7118539193785864  0.3543135793539065  0.33757300210824176  1.0000
  C   C2        1.0  0.6464577603069703  0.2949221821516934  0.26275806392828005  1.0000
  C   C3        1.0  0.6575419812761195  0.21368531946738245  0.16041977840447408  1.0000
  C   C4        1.0  0.5779477400809763  0.1740413242163641  0.11048209826652955  1.0000
  C   C5        1.0  0.5193493492574323  0.2320594491907617  0.18357306090633263  1.0000
  C   C6        1.0  0.4293234399959422  0.21672580466524538  0.16425969237624072  1.0000
  C   C7        1.0  0.3741175215614658  0.2843496251300237  0.2494437242979888  1.0000
  C   C8        1.0  0.2893334344219119  0.2712447537814837  0.2329372955504283  1.0000
  C   C9        1.0  0.2337275760873171  0.34094744954502954  0.3207391894027758  1.0000
  N   N2        1.0  0.189039339343553  0.3969769444553599  0.3913170409769977  1.0000
  C   C10       1.0  0.2587015998223613  0.19040669781205533  0.13110976222325244  1.0000
  C   C11       1.0  0.3125861181843899  0.12287245240056754  0.04603894154603672  1.0000
  C   C12       1.0  0.39720937291464664  0.135624338003149  0.06210058959080644  1.0000
  C   C13       1.0  0.5575912793673992  0.3166562393220449  0.2901411378038483  1.0000
  H   H1        1.0  0.71626732066011  0.1820961187185206  0.12062273921977495  1.0000
  H   H2        1.0  0.5692695911848388  0.10764653631398469  0.02684094003656968  1.0000
  H   H3        1.0  0.39659382049906317  0.34745735642940034  0.3289373987975941  1.0000
  H   H4        1.0  0.19324760295835353  0.17961100025048826  0.11751213797683335  1.0000
  H   H5        1.0  0.28871707165813687  0.06033668075532583  0.9672660194149691  1.0000
  H   H6        1.0  0.4366791443960236  0.08160129156771867  0.9940498467050478  1.0000
  H   H7        1.0  0.5413222956352973  0.28261186212661404  0.4028047236962334  1.0000
  H   H8        1.0  0.5407206101323466  0.4205744885521306  0.26550134772989864  1.0000
  C   C14       1.0  0.9766780840865732  0.018156660866940566  0.39472183620698553  1.0000
  C   C15       1.0  0.975949640312501  0.027065218885089275  0.24295738385551505  1.0000
  C   C16       1.0  0.9756605612829666  0.9144485294591759  0.1658500936912024  1.0000
  C   C17       1.0  0.9761097227522123  0.7918055953166199  0.24255856299806092  1.0000
  C   C18       1.0  0.9768344000712227  0.7809426710463805  0.3944176611868433  1.0000
  C   C19       1.0  0.9771154927811112  0.8946298817451787  0.4695643685091839  1.0000
  C   C20       1.0  0.9748889695161114  0.9249178290232584  0.005298312067186338  1.0000
  C   C21       1.0  0.023944937059992902  0.8415204239335986  0.9270057095341323  1.0000
  C   C22       1.0  0.023116824607597664  0.8516267245906559  0.775881083879042  1.0000
  C   C23       1.0  0.9734304723729074  0.9447444212353366  0.701337453631945  1.0000
  C   C24       1.0  0.9244686076595993  0.028014657079712627  0.7777671780820712  1.0000
  C   C25       1.0  0.9250907321631787  0.018405760651815747  0.9288959279238233  1.0000
  H   H9        1.0  0.9767390723079007  0.12181418046232297  0.1843420128746962  1.0000
  H   H10       1.0  0.9747610768713169  0.7046832411342044  0.18370232623682048  1.0000
  H   H11       1.0  0.9776751153901673  0.887043004253089  0.5866238074089136  1.0000
  H   H12       1.0  0.9776812608195358  0.5531542307535542  0.6810517099392648  1.0000
  H   H13       1.0  0.06368788044313978  0.769726475166558  0.9825822324794894  1.0000
  H   H14       1.0  0.06120522395912165  0.7873862562062015  0.7165261352583925  1.0000
  H   H15       1.0  0.9728692485466923  0.9523749699101123  0.5843554277573983  1.0000
  H   H16       1.0  0.8858177397380363  0.09990269257038231  0.7198779662697972  1.0000
  H   H17       1.0  0.8858886148502956  0.08285281782712395  0.9859732881341574  1.0000
  C   C26       1.0  0.9748259772936042  0.3969153667707949  0.9713148108618506  1.0000
  C   C27       1.0  0.921427656792955  0.48226633755467496  0.03807164757743432  1.0000
  C   C28       1.0  0.874604411185988  0.5739725471043606  0.9558164946997684  1.0000
  C   C29       1.0  0.8803326108696388  0.5822026284823707  0.8052951300410087  1.0000
  C   C30       1.0  0.9320301105395219  0.49677706529267146  0.7368085090377776  1.0000
  C   C31       1.0  0.9786865145994589  0.4021840016219603  0.8178247137592951  1.0000
  C   C32       1.0  0.8323202010701956  0.6774935586829967  0.7206868360518929  1.0000
  C   C33       1.0  0.7921243265941043  0.7572744408370318  0.6498336788803143  1.0000
  H   H18       1.0  0.14510345958441762  0.22435313153257422  0.08738223891723185  1.0000
  H   H19       1.0  0.9173292729324797  0.4801327965959703  0.15480531186057878  1.0000
  H   H20       1.0  0.8344793295370239  0.6393996097169463  0.009842826043066077  1.0000
  H   H21       1.0  0.9343799478527772  0.5021454025393062  0.6196858265314753  1.0000
  H   H22       1.0  0.09155755378119274  0.28189586651216847  0.5463314615164667  1.0000
  H   H23       1.0  0.7568406927027121  0.8273050382488988  0.5876378395872246  1.0000
  Zn  Zn1       1.0  0.8869882019963043  0.4006412412622782  0.3959446576029102  1.0000
  Zn  Zn2       1.0  0.06651644190061856  0.39845755882751543  0.3931942799509529  1.0000
  C   C34       1.0  0.9779539005830999  0.3960140376264029  0.6578182709997258  1.0000
  C   C35       1.0  0.9755527047376211  0.4030863782426621  0.13132077733276226  1.0000
  C   C36       1.0  0.9767744481379125  0.6367241832745711  0.3887316426972831  1.0000
  C   C37       1.0  0.976732095953026  0.16237467339633005  0.40040748403915655  1.0000
  O   O1        1.0  0.04392663136976349  0.40432306378838806  0.18397648962737123  1.0000
  O   O2        1.0  0.04583775194463934  0.393119005260113  0.6030746711916171  1.0000
  O   O3        1.0  0.04488441758837136  0.5874955125652406  0.38578532853681113  1.0000
  O   O4        1.0  0.04487990397425423  0.20994656584671986  0.4012657251475935  1.0000
  O   O5        1.0  0.9086246786584571  0.5891522349896243  0.38787321333725644  1.0000
  O   O6        1.0  0.909578012980296  0.3947772876292106  0.6051624785190981  1.0000
  O   O7        1.0  0.9076668845477271  0.40598129011205497  0.18606256408165225  1.0000
  O   O8        1.0  0.9086201576397835  0.21160478355347753  0.40335190766744544  1.0000
