data_image0
_chemical_formula_structural       NC5NC4H6C9H10C7NH4Zn2C4O8
_chemical_formula_sum              "N3 C29 H20 Zn2 O8"
_cell_length_a       13.854160002989762
_cell_length_b       10.297183801781406
_cell_length_c       9.275157849593905
_cell_angle_alpha    86.08426286032497
_cell_angle_beta     89.74088443434586
_cell_angle_gamma    89.99762469776624

_space_group_name_H-M_alt    "P 1"
_space_group_IT_number       1

loop_
  _space_group_symop_operation_xyz
  'x, y, z'

loop_
  _atom_site_type_symbol
  _atom_site_label
  _atom_site_symmetry_multiplicity
  _atom_site_fract_x
  _atom_site_fract_y
  _atom_site_fract_z
  _atom_site_occupancy
  N   N1        1.0  0.9136804769543392  0.4078847409027894  0.40965850880066523  1.0000
  C   C1        1.0  0.8415258646395785  0.43008186668677506  0.35061869806359885  1.0000
  C   C2        1.0  0.751764515514206  0.45769568749922596  0.27717091301892394  1.0000
  C   C3        1.0  0.6639769718982627  0.4317611646717756  0.3488856280536826  1.0000
  C   C4        1.0  0.5766221032127212  0.4576957002052559  0.27717088984691385  1.0000
  C   C5        1.0  0.4864177230017408  0.43008173478603684  0.3506187897241808  1.0000
  N   N2        1.0  0.4139069063584513  0.4078846837083125  0.4096585087427158  1.0000
  C   C6        1.0  0.5770873390076434  0.5101111179079008  0.1337601516671532  1.0000
  C   C7        1.0  0.6648424062606992  0.53798142986235  0.06194105742726897  1.0000
  C   C8        1.0  0.6653097656452445  0.5905144184825704  0.9070447078219321  1.0000
  C   C9        1.0  0.752164428316622  0.510111115931273  0.13376006141699515  1.0000
  H   H1        1.0  0.6636421955583683  0.3910924048528961  0.45988295636201443  1.0000
  H   H2        1.0  0.5093822488540158  0.5292523125655463  0.07811766534089881  1.0000
  H   H3        1.0  0.7302342383597745  0.6517026118826434  0.8832345197975586  1.0000
  H   H4        1.0  0.6005257605040367  0.6517026141375837  0.8832345848617403  1.0000
  H   H5        1.0  0.6655287932197518  0.5083557283705147  0.8355532079536836  1.0000
  H   H6        1.0  0.8202052081916339  0.52925241314232  0.07811757988973533  1.0000
  C   C10       1.0  0.16380107452000972  0.02641092012326451  0.40986272346283037  1.0000
  C   C11       1.0  0.16144620789533085  0.03495509685871223  0.25821355599072415  1.0000
  C   C12       1.0  0.16023951759776925  0.922716041066139  0.1805192528038322  1.0000
  C   C13       1.0  0.16143667909520326  0.7997789041562646  0.2576257862728881  1.0000
  C   C14       1.0  0.16379553100243216  0.7893486111356898  0.40946676778139046  1.0000
  C   C15       1.0  0.16496141431364797  0.9031321473230389  0.48459405315211607  1.0000
  C   C16       1.0  0.15769229600411094  0.9413893663316207  0.016499970005907635  1.0000
  C   C17       1.0  0.10141650919924428  0.8419763895044086  0.9362766710350621  1.0000
  C   C18       1.0  0.2113951901302471  0.8422448657582317  0.9316986124375674  1.0000
  H   H7        1.0  0.16471764533432104  0.35065702875865457  0.46829801186301584  1.0000
  H   H8        1.0  0.16053730214737744  0.12967598581633233  0.19966861062320307  1.0000
  H   H9        1.0  0.16055067179663451  0.711685331260875  0.200706622710481  1.0000
  H   H10       1.0  0.16677775957673147  0.8958126926846182  0.6015945703806491  1.0000
  H   H11       1.0  0.1682379161796137  0.5624322746201061  0.6962516268911418  1.0000
  H   H12       1.0  0.15687446036103136  0.04164750925592898  0.9637812891472635  1.0000
  H   H13       1.0  0.06900907567854309  0.7589079298434596  0.0018601674020937117  1.0000
  H   H14       1.0  0.06767239919225454  0.8819646793937637  0.8343150661261411  1.0000
  H   H15       1.0  0.2457938971212105  0.7593402972455785  0.9945019363659138  1.0000
  H   H16       1.0  0.2419287832029  0.8823876893380186  0.8270600040762877  1.0000
  C   C19       1.0  0.16507909017603878  0.4042078440685792  0.9864688959374959  1.0000
  C   C20       1.0  0.24827353466492996  0.4465564773662653  0.056142957391998045  1.0000
  C   C21       1.0  0.3265165531965286  0.4991199403291255  0.9762375201522625  1.0000
  C   C22       1.0  0.3224772646814642  0.5101704204531412  0.8255728381089553  1.0000
  C   C23       1.0  0.24126728609376402  0.4667698621952025  0.7545577808381978  1.0000
  C   C24       1.0  0.16251752510857684  0.411551649993523  0.83286065524829  1.0000
  C   C25       1.0  0.41065701886690825  0.5432776619913169  0.04921823499018618  1.0000
  N   N3        1.0  0.4782844088798365  0.5787685634386976  0.10788242042698304  1.0000
  H   H17       1.0  0.9302288119207593  0.3604080832313798  0.09432921753529655  1.0000
  H   H18       1.0  0.38258169348539184  0.5512611014171209  0.7627287220378949  1.0000
  H   H19       1.0  0.24105370527192793  0.4735995157513461  0.6374897968206885  1.0000
  H   H20       1.0  0.00540570740802448  0.37660763396298735  0.5554722758926115  1.0000
  Zn  Zn1       1.0  0.058034999359279006  0.4078813187559265  0.4096668417268694  1.0000
  Zn  Zn2       1.0  0.26955234938580586  0.40787757829066423  0.4096620168774375  1.0000
  C   C26       1.0  0.16299957706998583  0.4049884385663107  0.6728771500088084  1.0000
  C   C27       1.0  0.16459008099795275  0.4107720987371119  0.14645184913865572  1.0000
  C   C28       1.0  0.163808977241572  0.6450873163945781  0.40379887291915  1.0000
  C   C29       1.0  0.16378060842912157  0.17067166084492127  0.41553020387233475  1.0000
  O   O1        1.0  0.24469569709507014  0.41296803578183766  0.2001417616311183  1.0000
  O   O2        1.0  0.2434307367273476  0.4027886790034698  0.6191831612279264  1.0000
  O   O3        1.0  0.24408325099264205  0.5966715723354912  0.4019005480282985  1.0000
  O   O4        1.0  0.24404311098018971  0.21908515080632207  0.41742426677325517  1.0000
  O   O5        1.0  0.08354416558442755  0.5966737462428934  0.4019045918251174  1.0000
  O   O6        1.0  0.08289165153591015  0.4027924129774201  0.6191871273747893  1.0000
  O   O7        1.0  0.08415661721199363  0.4129717094537966  0.20014399515287984  1.0000
  O   O8        1.0  0.08350403076623156  0.2190888161244  0.41742660834657347  1.0000
