data_image0
_chemical_formula_structural       NC5N2C2NH4C10H6C6SCH7Zn2C4O8
_chemical_formula_sum              "N4 C28 H17 S1 Zn2 O8"
_cell_length_a       13.87973921873968
_cell_length_b       9.275150299802176
_cell_length_c       9.275274088470228
_cell_angle_alpha    85.77620997522486
_cell_angle_beta     89.72578350354677
_cell_angle_gamma    89.48389152441209

_space_group_name_H-M_alt    "P 1"
_space_group_IT_number       1

loop_
  _space_group_symop_operation_xyz
  'x, y, z'

loop_
  _atom_site_type_symbol
  _atom_site_label
  _atom_site_symmetry_multiplicity
  _atom_site_fract_x
  _atom_site_fract_y
  _atom_site_fract_z
  _atom_site_occupancy
  N   N1        1.0  0.9029324855996208  0.5638801092131076  0.40151030478561445  1.0000
  C   C1        1.0  0.8298603522355347  0.5878890168969013  0.3447503394154112  1.0000
  C   C2        1.0  0.7391074411840761  0.6177104220581464  0.27424833019072903  1.0000
  C   C3        1.0  0.6526138167665911  0.5876955242211765  0.34759789601077395  1.0000
  C   C4        1.0  0.5662280402893869  0.6177103577798898  0.27424837044780914  1.0000
  C   C5        1.0  0.47538323170352065  0.5878888711515156  0.3447502370414244  1.0000
  N   N2        1.0  0.4022370546360312  0.5638800844745258  0.40151029393529436  1.0000
  N   N3        1.0  0.5679658067078192  0.6750597842162771  0.13520274296811774  1.0000
  C   C6        1.0  0.6528084307235514  0.7050388420844886  0.06589562669527173  1.0000
  C   C7        1.0  0.6529455707280892  0.7641222113132193  0.9118509161470132  1.0000
  N   N4        1.0  0.7375687056144892  0.6750597376339544  0.1352027539803562  1.0000
  H   H1        1.0  0.6525351992940028  0.5418055598975899  0.4585595320953078  1.0000
  H   H2        1.0  0.7176128749716135  0.8318116030280753  0.8890769905633737  1.0000
  H   H3        1.0  0.6537214854005433  0.6734535501394139  0.8401628341808103  1.0000
  H   H4        1.0  0.5876080695312688  0.8318095311093948  0.8890762364893869  1.0000
  C   C8        1.0  0.1551236183376392  0.1401974570605029  0.4039228226056864  1.0000
  C   C9        1.0  0.20614496133597912  0.22121448883218076  0.2948985101507806  1.0000
  C   C10       1.0  0.2489217249486091  0.15397730040961477  0.1803337243340717  1.0000
  C   C11       1.0  0.24111223246075264  0.004743180102434904  0.17331760436879495  1.0000
  C   C12       1.0  0.19219639760910634  0.9222761588842187  0.28169425699065087  1.0000
  C   C13       1.0  0.1500551283467226  0.987551703442611  0.39911032013189696  1.0000
  C   C14       1.0  0.299962881463959  0.2387128045284097  0.06881668193487411  1.0000
  C   C15       1.0  0.3426972126199699  0.3096814262291181  0.975453674180554  1.0000
  C   C16       1.0  0.39273713217655043  0.3927906626189252  0.8661296638618953  1.0000
  C   C17       1.0  0.4354632239415461  0.463753972077042  0.772784553139916  1.0000
  H   H5        1.0  0.10869350406235667  0.4046937296138867  0.6327606761820603  1.0000
  H   H6        1.0  0.2107668158925058  0.3376839876656468  0.29712474731574146  1.0000
  H   H7        1.0  0.2736971072623642  0.951756434582668  0.08466853092102666  1.0000
  H   H8        1.0  0.189270189484553  0.8062170339376703  0.27547264936907356  1.0000
  H   H9        1.0  0.08633678092464048  0.860331373913395  0.7415011263837132  1.0000
  H   H10       1.0  0.4729802964005498  0.526065784010786  0.6908198361111875  1.0000
  C   C18       1.0  0.1539663809700289  0.5598542737795935  0.9783424881430038  1.0000
  C   C19       1.0  0.23570906900230004  0.6106388952109982  0.0474024036837306  1.0000
  C   C20       1.0  0.3120318622278213  0.6729181095809043  0.9669846271669642  1.0000
  C   C21       1.0  0.30789066712549484  0.684551073635252  0.8163584323355153  1.0000
  C   C22       1.0  0.22821330533933182  0.632674334702243  0.7458018074039514  1.0000
  C   C23       1.0  0.15121239969769018  0.5678949409564802  0.8246906454988587  1.0000
  S   S1        1.0  0.4151157787536697  0.7383331082410685  0.05730145911924467  1.0000
  C   C24       1.0  0.3645143326973203  0.9189221787483742  0.06800797733319541  1.0000
  H   H11       1.0  0.9210163191714846  0.5004894776361197  0.08738435733047202  1.0000
  H   H12       1.0  0.3668026525319177  0.732892214933087  0.7535860086721314  1.0000
  H   H13       1.0  0.2278854954206342  0.6401493786827408  0.6286998898098353  1.0000
  H   H14       1.0  0.9955603169580143  0.5220399887673273  0.5480362745737954  1.0000
  H   H15       1.0  0.35044041277925975  0.9693422794214495  0.9577595275346128  1.0000
  H   H16       1.0  0.2964335260254968  0.913502497740825  0.13140432497681553  1.0000
  H   H17       1.0  0.4167449701004488  0.986240426517393  0.12262496731724327  1.0000
  Zn  Zn1       1.0  0.04702099574745633  0.563876314907473  0.40151864802663684  1.0000
  Zn  Zn2       1.0  0.25814856237132267  0.5638721724123783  0.401513830937976  1.0000
  C   C25       1.0  0.1517651870743877  0.5606273502918377  0.6647453679677069  1.0000
  C   C26       1.0  0.15340666520170254  0.5671229587547384  0.13828724204442727  1.0000
  C   C27       1.0  0.15102693180790205  0.8273291799200402  0.39427751402345756  1.0000
  C   C28       1.0  0.15414485854359292  0.3004193964360739  0.408755182663685  1.0000
  O   O1        1.0  0.23334066835982514  0.5695545294087645  0.1919643702556364  1.0000
  O   O2        1.0  0.23207212968468302  0.5581915432138804  0.6110641750527697  1.0000
  O   O3        1.0  0.23147489426438206  0.7735566578002935  0.39265946089228804  1.0000
  O   O4        1.0  0.23393783202644047  0.35418942411825305  0.41036897631039104  1.0000
  O   O5        1.0  0.07123165404487719  0.7735590632045104  0.39266350264827676  1.0000
  O   O6        1.0  0.07182887934231162  0.5581956813114708  0.6110681301278058  1.0000
  O   O7        1.0  0.07309742401994845  0.5695586007691387  0.19196659305681352  1.0000
  O   O8        1.0  0.07369458739278834  0.35419348618563784  0.4103713072113505  1.0000
