data_image0
_chemical_formula_structural       NC6NC3H6C9H8C7ONH6Zn2C4O8
_chemical_formula_sum              "N3 C29 H20 O9 Zn2"
_cell_length_a       14.934028789175542
_cell_length_b       9.275152443626249
_cell_length_c       9.273042158839658
_cell_angle_alpha    85.96394158152518
_cell_angle_beta     90.06873718233021
_cell_angle_gamma    90.53595971611534

_space_group_name_H-M_alt    "P 1"
_space_group_IT_number       1

loop_
  _space_group_symop_operation_xyz
  'x, y, z'

loop_
  _atom_site_type_symbol
  _atom_site_label
  _atom_site_symmetry_multiplicity
  _atom_site_fract_x
  _atom_site_fract_y
  _atom_site_fract_z
  _atom_site_occupancy
  N   N1        1.0  0.8512795486720008  0.5611274264026822  0.4042085986277022  1.0000
  C   C1        1.0  0.7737859208852012  0.5600218093908989  0.4035336419319468  1.0000
  C   C2        1.0  0.6773799079652856  0.5586413404100679  0.4026910851232832  1.0000
  C   C3        1.0  0.630355214458042  0.666152060237688  0.4682029810402179  1.0000
  C   C4        1.0  0.5368358818995791  0.6650436504307162  0.467527440154236  1.0000
  C   C5        1.0  0.4894290705737996  0.5564793886014991  0.4013736363892273  1.0000
  C   C6        1.0  0.3927992913789068  0.5588087580942418  0.402794327417072  1.0000
  N   N2        1.0  0.3153318611719597  0.5606574099220298  0.4039221531664444  1.0000
  C   C7        1.0  0.5364379844974566  0.4474812756388047  0.3349548428824758  1.0000
  C   C8        1.0  0.4873116608174577  0.32944936910228795  0.2630331376864081  1.0000
  C   C9        1.0  0.6305961475701568  0.4497207101353944  0.33631949931704397  1.0000
  H   H1        1.0  0.665980863542808  0.7508605410010281  0.5198208674738345  1.0000
  H   H2        1.0  0.5013771082218105  0.7490997515553885  0.5187476543411156  1.0000
  H   H3        1.0  0.4447716368622728  0.3776006005085577  0.17426833386621143  1.0000
  H   H4        1.0  0.44426257324131335  0.26742914943042084  0.34335346770501807  1.0000
  H   H5        1.0  0.5342457921988429  0.2529983262374662  0.21644110950925285  1.0000
  H   H6        1.0  0.6675556559164795  0.36678280872552493  0.28578095194088204  1.0000
  C   C10       1.0  0.08067012481366825  0.1372782840265432  0.40553848179077556  1.0000
  C   C11       1.0  0.048236378317926716  0.2187607223704788  0.2831103693367476  1.0000
  C   C12       1.0  0.02412355690321033  0.15202983814936655  0.15838458576780098  1.0000
  C   C13       1.0  0.03206531478981954  0.00262969021234039  0.15361732029270359  1.0000
  C   C14       1.0  0.06274695249715667  0.9194499791476031  0.2750116689677029  1.0000
  C   C15       1.0  0.08594983983559396  0.9844955862214145  0.4026047133850419  1.0000
  C   C16       1.0  0.007666433111187972  0.9341442043288906  0.024455574438478234  1.0000
  C   C17       1.0  0.9872380604545622  0.8767701769426067  0.9163028622598531  1.0000
  C   C18       1.0  0.9624522656089859  0.8071449410632637  0.785078513598926  1.0000
  H   H7        1.0  0.20964539572048604  0.22183118201008467  0.6933094541836101  1.0000
  H   H8        1.0  0.043519057103658776  0.33527821086271925  0.28265990711073297  1.0000
  H   H9        1.0  8.245662246753193e-05  0.21731066901053578  0.0650515308359505  1.0000
  H   H10       1.0  0.06651266893442885  0.803093781848082  0.2709885644681247  1.0000
  H   H11       1.0  0.16991788622400705  0.6911849826417868  0.5994330183623213  1.0000
  H   H12       1.0  0.9788361312463592  0.6905483524428117  0.7985335320063616  1.0000
  H   H13       1.0  0.8895511594183565  0.8195935025488988  0.7653918045895035  1.0000
  H   H14       1.0  0.0001663028982996651  0.8584725437409289  0.6917599668300727  1.0000
  C   C19       1.0  0.08285401710644974  0.5564290701005568  0.9808224130086112  1.0000
  C   C20       1.0  0.0006683849893278635  0.5656983257654806  0.0535221818181233  1.0000
  C   C21       1.0  0.920186689760027  0.5889192043832585  0.9772356661757402  1.0000
  C   C22       1.0  0.9223761956727623  0.6011279368118649  0.8256933774617332  1.0000
  C   C23       1.0  0.0030827509697659607  0.5897422186295107  0.7519924169246938  1.0000
  C   C24       1.0  0.08376596730273062  0.5653447283124617  0.82732084699806  1.0000
  C   C25       1.0  0.8346831970183913  0.5989643701910581  0.057114023946157604  1.0000
  O   O1        1.0  0.8283532047322036  0.5431469195176752  0.18468164368270856  1.0000
  N   N3        1.0  0.7589734090096806  0.672225465760615  0.9933711600789813  1.0000
  H   H15       1.0  0.3004457630202608  0.6113098683043752  0.08045755404660837  1.0000
  H   H16       1.0  0.9997666271578044  0.5593034001618742  0.1706889140194785  1.0000
  H   H17       1.0  0.8615735482743204  0.6154524804575234  0.7630584450491842  1.0000
  H   H18       1.0  0.23038796513026472  0.5956164889922495  0.5442033289580065  1.0000
  H   H19       1.0  0.7636738647014513  0.7345139257212442  0.895486962844898  1.0000
  H   H20       1.0  0.6984509488787899  0.6721244006581926  0.0496515449686996  1.0000
  Zn  Zn1       1.0  0.9851950203611066  0.5609880118045123  0.4041342668361209  1.0000
  Zn  Zn2       1.0  0.1814163586041102  0.5607851320860346  0.40400830958248446  1.0000
  C   C26       1.0  0.0835557555342756  0.5579127294937511  0.6673343948346482  1.0000
  C   C27       1.0  0.08305777765700362  0.5638622338052142  0.14080831537003968  1.0000
  C   C28       1.0  0.084941059165748  0.8242929657841497  0.39741580354386263  1.0000
  C   C29       1.0  0.08167239635105367  0.2974802652518742  0.4107269895474215  1.0000
  O   O2        1.0  0.15759109758721812  0.566273586300563  0.19445326736300705  1.0000
  O   O3        1.0  0.1579498838490505  0.5553463033674759  0.613593433068805  1.0000
  O   O4        1.0  0.1590675318420402  0.7704517298324365  0.3956322563330931  1.0000
  O   O5        1.0  0.15647338258506538  0.3511681690859376  0.41241433603803185  1.0000
  O   O6        1.0  0.010137929419440582  0.7706049748753325  0.3957282404159699  1.0000
  O   O7        1.0  0.009020292140217604  0.5555012807440367  0.6136893343004819  1.0000
  O   O8        1.0  0.00866150375787278  0.5664284951566501  0.19454743590174717  1.0000
  O   O9        1.0  0.00754378880417183  0.3513230687624129  0.41250861267285566  1.0000
