data_image0
_chemical_formula_structural       NC9NC5H8C10ClC2H9C10ClC2H9Zn2C4O8
_chemical_formula_sum              "N2 C42 H26 Cl2 Zn2 O8"
_cell_length_a       17.807436237873137
_cell_length_b       10.299769246903262
_cell_length_c       10.299772619071826
_cell_angle_alpha    85.54440032350014
_cell_angle_beta     89.39585175655242
_cell_angle_gamma    88.40836129390726

_space_group_name_H-M_alt    "P 1"
_space_group_IT_number       1

loop_
  _space_group_symop_operation_xyz
  'x, y, z'

loop_
  _atom_site_type_symbol
  _atom_site_label
  _atom_site_symmetry_multiplicity
  _atom_site_fract_x
  _atom_site_fract_y
  _atom_site_fract_z
  _atom_site_occupancy
  N   N1        1.0  0.7076078186094761  0.3881920396968844  0.5571597689123193  1.0000
  C   C1        1.0  0.6470133181247383  0.35300658181086086  0.5461348812568889  1.0000
  C   C2        1.0  0.5716404194212829  0.3092397470314605  0.5324211180845277  1.0000
  C   C3        1.0  0.5535314118552161  0.23785997362625613  0.4274159497516534  1.0000
  C   C4        1.0  0.48034819256009936  0.19525428241232556  0.41401813790494296  1.0000
  C   C5        1.0  0.4242251911247681  0.22365085309243593  0.505593032704194  1.0000
  C   C6        1.0  0.3464503190129465  0.17848686409102246  0.49143670609022805  1.0000
  C   C7        1.0  0.2842901749922094  0.26023300883259287  0.5173778735816721  1.0000
  C   C8        1.0  0.210964613841131  0.21742427925430843  0.5039937375904884  1.0000
  C   C9        1.0  0.1477548932294847  0.30186160396914086  0.5302988801137845  1.0000
  N   N2        1.0  0.0969472650393383  0.36974337097639803  0.5514474880587283  1.0000
  C   C10       1.0  0.19921560306922095  0.09261143840191013  0.46464307748265554  1.0000
  C   C11       1.0  0.2605183743548685  0.01085144434873664  0.438693519893869  1.0000
  C   C12       1.0  0.3337244220665816  0.05326570618239779  0.45187510627785743  1.0000
  C   C13       1.0  0.44302570378396233  0.29552491217349486  0.6108174445858627  1.0000
  C   C14       1.0  0.5162617526995456  0.3379402630237632  0.6240596000013792  1.0000
  H   H1        1.0  0.5959191817454057  0.21539831218928598  0.3557022925152111  1.0000
  H   H2        1.0  0.4674222502822924  0.14159982042510566  0.3310959144203556  1.0000
  H   H3        1.0  0.2928068764651409  0.35768658825696215  0.5462575785881467  1.0000
  H   H4        1.0  0.1427438393612399  0.058579502522478455  0.4540472613295734  1.0000
  H   H5        1.0  0.2513034298746853  0.9142183342445794  0.40861341976788373  1.0000
  H   H6        1.0  0.38035229773407486  0.98752816178035  0.432824909459429  1.0000
  H   H7        1.0  0.401354768476592  0.3174471183753827  0.6838255917821725  1.0000
  H   H8        1.0  0.5297162268887678  0.39281562111783735  0.7059402240139716  1.0000
  C   C15       1.0  0.902210495329298  0.9976057719539863  0.5542993941354748  1.0000
  C   C16       1.0  0.9091427980137996  0.006866661529502762  0.4179891146508776  1.0000
  C   C17       1.0  0.9127272579746145  0.8944163965127485  0.3489291885480703  1.0000
  C   C18       1.0  0.9092854072255319  0.7715717398726244  0.41800896577267665  1.0000
  C   C19       1.0  0.9023517877992612  0.7603193067562448  0.5543189897908574  1.0000
  C   C20       1.0  0.8988533577597645  0.8738916936441231  0.6217008700139215  1.0000
  C   C21       1.0  0.9200623556431037  0.9052665822907053  0.20472437527101306  1.0000
  C   C22       1.0  0.9687683321117401  0.8200357915645162  0.1415217736883061  1.0000
  C   C23       1.0  0.975605455318295  0.8304472695002618  0.005783706783108582  1.0000
  C   C24       1.0  0.9339549647610959  0.9258166356787882  0.9315910347187363  1.0000
  Cl  Cl1       1.0  0.9426158915078128  0.9386281477271846  0.761304369865067  1.0000
  C   C25       1.0  0.8853920486245602  0.010961260596107353  0.9933006194221107  1.0000
  C   C26       1.0  0.8784216814179451  0.0009486986801709994  0.12902035031525494  1.0000
  H   H9        1.0  0.8995402262484442  0.32153198882301615  0.6062374553647845  1.0000
  H   H10       1.0  0.9128058628057933  0.10171129272973656  0.3653466494996187  1.0000
  H   H11       1.0  0.9109913384848  0.6846696976277812  0.3650955321491576  1.0000
  H   H12       1.0  0.89350514977351  0.8659792736680887  0.7268579094959593  1.0000
  H   H13       1.0  0.8997452582008088  0.4285758935601314  0.606265175245096  1.0000
  H   H14       1.0  0.0022705245906799983  0.7464934767962232  0.1971351514129711  1.0000
  H   H15       1.0  0.013444182688942428  0.7645172805766178  0.9584407156691866  1.0000
  H   H16       1.0  0.8528648409420814  0.0847477404469368  0.9362205133665332  1.0000
  H   H17       1.0  0.8397698913940246  0.06687359372768054  0.1746500407308571  1.0000
  C   C27       1.0  0.902264982771827  0.37908299557956704  0.17293917697768135  1.0000
  C   C28       1.0  0.979069431383917  0.40666562212264457  0.16840055522571928  1.0000
  C   C29       1.0  0.018003533620454037  0.4205196810446048  0.04897135208782277  1.0000
  C   C30       1.0  0.9791020863732687  0.40642242117419164  0.9331324501690998  1.0000
  C   C31       1.0  0.9022972801816668  0.37884207209274745  0.9356792142883911  1.0000
  C   C32       1.0  0.8643089352241121  0.36532640239415404  0.05606077194487157  1.0000
  C   C33       1.0  0.09925659357861735  0.4496976692170212  0.04522302516771748  1.0000
  C   C34       1.0  0.14873168676556328  0.38672817714956853  0.9614111793970737  1.0000
  C   C35       1.0  0.2251936707893791  0.41430519081312756  0.958069739529197  1.0000
  C   C36       1.0  0.25315508397747655  0.5049636265060948  0.038122472595341746  1.0000
  Cl  Cl2       1.0  0.3491038835448895  0.539420369379333  0.033694937181478764  1.0000
  C   C37       1.0  0.20454171898058204  0.5681232646778389  0.12170863997065484  1.0000
  C   C38       1.0  0.12804927416559075  0.5407735425289386  0.12542409607939664  1.0000
  H   H18       1.0  0.8729915143463758  0.36862125692030534  0.5021183562217875  1.0000
  H   H19       1.0  0.009031480125559762  0.41567629936673334  0.25808515443401103  1.0000
  H   H20       1.0  0.008616082238336986  0.4187700855182166  0.8407043743310654  1.0000
  H   H21       1.0  0.8050577392767875  0.34404807643099417  0.0587940345869542  1.0000
  H   H22       1.0  0.8730388194238563  0.3682718775161334  0.6092007920941596  1.0000
  H   H23       1.0  0.12846770220049114  0.3149725484302968  0.8997420681778275  1.0000
  H   H24       1.0  0.262666614074501  0.3648809020812571  0.8934354211509534  1.0000
  H   H25       1.0  0.22590651262280412  0.638676404814422  0.18362816025044126  1.0000
  H   H26       1.0  0.091267289101832  0.5920437195499649  0.1897250837529476  1.0000
  Zn  Zn1       1.0  0.8199627711374213  0.3828646848241013  0.5555188387752374  1.0000
  Zn  Zn2       1.0  0.9845922928055295  0.3750601365015565  0.5530990945665912  1.0000
  C   C39       1.0  0.902288535332844  0.37371413968527106  0.7915049334133389  1.0000
  C   C40       1.0  0.9022683266682534  0.38421223496359724  0.3171131010139703  1.0000
  C   C41       1.0  0.9023209735140459  0.616152052079719  0.5491401888498635  1.0000
  C   C42       1.0  0.9022358320244468  0.14177276493707436  0.5594779156017988  1.0000
  O   O1        1.0  0.9647454933601596  0.3829662035071  0.3645809065031653  1.0000
  O   O2        1.0  0.9647613661219171  0.3690357199638281  0.7422002241864949  1.0000
  O   O3        1.0  0.964786718213668  0.5648074397680247  0.5464889905945127  1.0000
  O   O4        1.0  0.9647200850891032  0.1871944956868674  0.5602920435461274  1.0000
  O   O5        1.0  0.8398349226738715  0.5707303283035159  0.54832589061461  1.0000
  O   O6        1.0  0.8398095708647497  0.3749601687961186  0.7440370550011486  1.0000
  O   O7        1.0  0.8397936980784712  0.3888906075750227  0.3664161759106457  1.0000
  O   O8        1.0  0.8397682898067445  0.19311889043555075  0.5621274103215368  1.0000
