data_image0
_chemical_formula_structural       NC8NH4C6ClH5C6FH2Zn2C4O8
_chemical_formula_sum              "N2 C24 H11 Cl1 F1 Zn2 O8"
_cell_length_a       13.859017981522156
_cell_length_b       9.276545438789551
_cell_length_c       9.275646106892307
_cell_angle_alpha    84.98577803735094
_cell_angle_beta     90.02253054729924
_cell_angle_gamma    89.4096370293992

_space_group_name_H-M_alt    "P 1"
_space_group_IT_number       1

loop_
  _space_group_symop_operation_xyz
  'x, y, z'

loop_
  _atom_site_type_symbol
  _atom_site_label
  _atom_site_symmetry_multiplicity
  _atom_site_fract_x
  _atom_site_fract_y
  _atom_site_fract_z
  _atom_site_occupancy
  N   N1        1.0  0.8971704551701161  0.5950017665361806  0.4088946066984982  1.0000
  C   C1        1.0  0.8248436881445966  0.5886257938836605  0.3474982315294999  1.0000
  C   C2        1.0  0.7348734585303242  0.580695291030545  0.2711291300080818  1.0000
  C   C3        1.0  0.7347584621175985  0.5652299844931512  0.12220563525087269  1.0000
  C   C4        1.0  0.6473594140397726  0.5575292953585402  0.048041423382829906  1.0000
  C   C5        1.0  0.5598931742043618  0.5652317092990178  0.12220538764681922  1.0000
  C   C6        1.0  0.5596432148666272  0.5806962661480892  0.2711289465552664  1.0000
  C   C7        1.0  0.6472246734726066  0.5884270934779394  0.3455795316314123  1.0000
  C   C8        1.0  0.469603865063703  0.588626700100733  0.347497991328237  1.0000
  N   N2        1.0  0.3972215373110245  0.5950020809822048  0.4088945131591793  1.0000
  H   H1        1.0  0.8020804902952641  0.5591442279267136  0.06360581082451744  1.0000
  H   H2        1.0  0.6474114902403184  0.5455832703717336  0.9330044317939605  1.0000
  H   H3        1.0  0.49262419906318533  0.5591473297929774  0.06360539215436378  1.0000
  H   H4        1.0  0.647172485026476  0.6003971802228212  0.4608504009161006  1.0000
  C   C9        1.0  0.1501126307537555  0.17156933008497388  0.4086566314392137  1.0000
  C   C10       1.0  0.15042375046576528  0.25663933642057346  0.27543976103713597  1.0000
  C   C11       1.0  0.141957597847451  0.19294760202204708  0.14512238125195867  1.0000
  C   C12       1.0  0.13298028774924386  0.04334692744858403  0.14601697097166988  1.0000
  C   C13       1.0  0.13415682813123087  0.9567645440890921  0.27678864374805023  1.0000
  C   C14       1.0  0.1442887066238723  0.018423353802690556  0.40914496789368626  1.0000
  Cl  Cl1       1.0  0.1411430652537653  0.3013235810999746  0.9803481181076599  1.0000
  H   H5        1.0  0.1995532264414815  0.43211210652545323  0.635572675800077  1.0000
  H   H6        1.0  0.1549437953832105  0.3733903333073969  0.27258220699459823  1.0000
  H   H7        1.0  0.1260083873237554  0.9936989025154065  0.045195664602776464  1.0000
  H   H8        1.0  0.129438508253241  0.8405323360711797  0.27413463866518284  1.0000
  H   H9        1.0  0.11203809148904578  0.7172025899269243  0.6425311934808184  1.0000
  C   C15       1.0  0.14705732320734444  0.5995094399387655  0.985062952363335  1.0000
  C   C16       1.0  0.2353011299030246  0.6145798706538954  0.0571324780065663  1.0000
  C   C17       1.0  0.3224420461898312  0.6161111046994774  0.9816875263346696  1.0000
  C   C18       1.0  0.32287054055700715  0.6024540765937718  0.8333033966145593  1.0000
  C   C19       1.0  0.2361221938808118  0.5897878644898888  0.7593032980079264  1.0000
  C   C20       1.0  0.14734395361671182  0.5904832241013789  0.8327386304519626  1.0000
  F   F1        1.0  0.40685028069826834  0.6291293545546939  0.05313023043863163  1.0000
  H   H10       1.0  0.9241244798027384  0.48236281566981964  0.09814835200588767  1.0000
  H   H11       1.0  0.3905286650737637  0.603057346543997  0.7749883689327831  1.0000
  Zn  Zn1       1.0  0.04147443106809169  0.5949979181104483  0.4089029084545724  1.0000
  Zn  Zn2       1.0  0.2529176490182097  0.5949940388619772  0.4088980137402878  1.0000
  C   C21       1.0  0.1473271551728444  0.5864450386488524  0.672506466417238  1.0000
  C   C22       1.0  0.14706722140275108  0.6035487361262  0.14529459843427883  1.0000
  C   C23       1.0  0.14538262186901574  0.8584111269276141  0.40330117669898186  1.0000
  C   C24       1.0  0.14901169449578577  0.33158091463105377  0.41449996410423484  1.0000
  O   O1        1.0  0.2273121858558289  0.6048965980192471  0.19906794144389628  1.0000
  O   O2        1.0  0.2275627080212209  0.5850931491376998  0.6187289923282655  1.0000
  O   O3        1.0  0.225991391598787  0.8047091889428675  0.4013438170982684  1.0000
  O   O4        1.0  0.22888343001948064  0.38528056968263424  0.41645300846328115  1.0000
  O   O5        1.0  0.06550857791161402  0.8047113872927651  0.4013479137256586  1.0000
  O   O6        1.0  0.06707988238963569  0.5850970807069559  0.6187330129980353  1.0000
  O   O7        1.0  0.06682936004714014  0.6049004978185761  0.19907022680771871  1.0000
  O   O8        1.0  0.06840060431436724  0.3852844580163832  0.41645540203179593  1.0000
