data_image0
_chemical_formula_structural       NC8NC6H8C7OCH10C8NH11Zn2C4O8
_chemical_formula_sum              "N3 C34 H29 O9 Zn2"
_cell_length_a       17.457602349358154
_cell_length_b       10.300832083147542
_cell_length_c       9.275652972338538
_cell_angle_alpha    85.92062759394871
_cell_angle_beta     93.30040864466163
_cell_angle_gamma    91.68357009181102

_space_group_name_H-M_alt    "P 1"
_space_group_IT_number       1

loop_
  _space_group_symop_operation_xyz
  'x, y, z'

loop_
  _atom_site_type_symbol
  _atom_site_label
  _atom_site_symmetry_multiplicity
  _atom_site_fract_x
  _atom_site_fract_y
  _atom_site_fract_z
  _atom_site_occupancy
  N   N1        1.0  0.7161881182296534  0.4433100254566291  0.47448135510478284  1.0000
  C   C1        1.0  0.6550652800634421  0.3973166517450271  0.4627126669595197  1.0000
  C   C2        1.0  0.5790259287678433  0.3401066738771808  0.44808301092016634  1.0000
  C   C3        1.0  0.5208305089428114  0.38077642621459523  0.5312246795993818  1.0000
  C   C4        1.0  0.4462318706760692  0.32568870740739403  0.5172764032808972  1.0000
  C   C5        1.0  0.3844652338694384  0.3686316059619188  0.6053266330012843  1.0000
  C   C6        1.0  0.3096676940001037  0.38671725859439166  0.5434065858184409  1.0000
  C   C7        1.0  0.2514727655622799  0.42720384053826654  0.6266681838606951  1.0000
  C   C8        1.0  0.1752271105502989  0.44588015193725755  0.5622881283490899  1.0000
  N   N2        1.0  0.11393852147293144  0.46088952824433815  0.5105267338818993  1.0000
  C   C9        1.0  0.2675854783167435  0.44985136250513036  0.7724143306206048  1.0000
  C   C10       1.0  0.34160002808577977  0.4321573076947206  0.8347645690271914  1.0000
  C   C11       1.0  0.39978539171445143  0.39185389019722083  0.7520110989015323  1.0000
  C   C12       1.0  0.4311109179669589  0.22924409124273296  0.41859578201248504  1.0000
  C   C13       1.0  0.4892963954964715  0.18885572529250028  0.3358981202856073  1.0000
  C   C14       1.0  0.563112725288144  0.24405956640287244  0.35045694975472164  1.0000
  H   H1        1.0  0.5334687010680876  0.45641884079541467  0.6051742222515972  1.0000
  H   H2        1.0  0.2968665067999005  0.3710513516198257  0.43013694945746295  1.0000
  H   H3        1.0  0.222986297008547  0.4811331737536339  0.8377264860110263  1.0000
  H   H4        1.0  0.35388574220166374  0.4493781766426945  0.9476191824495334  1.0000
  H   H5        1.0  0.4564784196924031  0.37717851710082423  0.803207799801277  1.0000
  H   H6        1.0  0.3745811619873817  0.18384008279523584  0.40678676681659254  1.0000
  H   H7        1.0  0.47716658046163024  0.11432147880538392  0.26061767906963795  1.0000
  H   H8        1.0  0.6077142904558109  0.21191163210143785  0.2857126197699158  1.0000
  C   C15       1.0  0.915089023737655  0.07076506309126772  0.49265762187660567  1.0000
  C   C16       1.0  0.8931341876719215  0.07833254968995607  0.3443106226947981  1.0000
  C   C17       1.0  0.8811852629253886  0.9649589292472499  0.26996622893033817  1.0000
  C   C18       1.0  0.8930772473533068  0.8430688159298667  0.3439246312536348  1.0000
  C   C19       1.0  0.9150450262178828  0.833424868544602  0.49236363424536855  1.0000
  C   C20       1.0  0.9257423785112104  0.9477922392894969  0.5659254842682988  1.0000
  C   C21       1.0  0.8598902796623332  0.9743438123248155  0.11037640025489037  1.0000
  O   O1        1.0  0.9277248099763062  0.982763637257538  0.03412556850086302  1.0000
  C   C22       1.0  0.9085056250623904  0.9916535595782282  0.8840924328926061  1.0000
  H   H9        1.0  0.9243679454467908  0.3953312966787084  0.549123822860828  1.0000
  H   H10       1.0  0.885252854629263  0.17232402553024495  0.2859748628765988  1.0000
  H   H11       1.0  0.8851561273091251  0.7559095524573703  0.28532382513042087  1.0000
  H   H12       1.0  0.9426814017811547  0.9411932726972119  0.6803334692683675  1.0000
  H   H13       1.0  0.957325577646141  0.6080472220311329  0.7720191433821995  1.0000
  H   H14       1.0  0.8244574298350784  0.06190453481940694  0.08306931159557743  1.0000
  H   H15       1.0  0.8244869087578536  0.8868143903090396  0.08274148038971374  1.0000
  H   H16       1.0  0.962317517527713  0.9981904630350587  0.8256593417408631  1.0000
  H   H17       1.0  0.8756936597975148  0.08093130836656327  0.8510610766317709  1.0000
  H   H18       1.0  0.8757055552734426  0.9034476782169236  0.8507049769363095  1.0000
  C   C23       1.0  0.9133585626546751  0.44948853576389136  0.06908601432666561  1.0000
  C   C24       1.0  0.8635721387176315  0.5322312894868055  0.13068903779025454  1.0000
  C   C25       1.0  0.8198452867117668  0.622819430408541  0.04399114377635205  1.0000
  C   C26       1.0  0.8248682152827511  0.6293679620913308  0.893658555107857  1.0000
  C   C27       1.0  0.8729647766559443  0.5466083255550445  0.8304942916555849  1.0000
  C   C28       1.0  0.9167754856545098  0.45470140722854674  0.915935205571043  1.0000
  C   C29       1.0  0.765972748322559  0.7092787466833127  0.11161898674582817  1.0000
  C   C30       1.0  0.687062592141742  0.6423431607050232  0.12527938762000224  1.0000
  N   N3        1.0  0.6350030858702103  0.7277990187519041  0.1887361109208998  1.0000
  H   H19       1.0  0.969625166438714  0.2590408042519208  0.37086568005667475  1.0000
  H   H20       1.0  0.8599216130298529  0.5284570600242734  0.24718712032392975  1.0000
  H   H21       1.0  0.7908321235620116  0.6978092000861591  0.8249642988174606  1.0000
  H   H22       1.0  0.874350116997071  0.5522466575320608  0.7135978410493209  1.0000
  H   H23       1.0  0.0220347307779134  0.3404169517676874  0.6550392208011028  1.0000
  H   H24       1.0  0.7900070555529455  0.7331584353560173  0.22050267591404674  1.0000
  H   H25       1.0  0.7598229536434475  0.8027598097736205  0.04471652304780949  1.0000
  H   H26       1.0  0.6630686187063787  0.619508622577057  0.015981802493174827  1.0000
  H   H27       1.0  0.6924857653465275  0.5495770847424  0.19399889407114368  1.0000
  H   H28       1.0  0.5807968045595612  0.6817956850389977  0.18824317882492836  1.0000
  H   H29       1.0  0.6529747754570712  0.7350929303473962  0.29748221845931955  1.0000
  Zn  Zn1       1.0  0.8309703265488589  0.4483796590787854  0.48489159950594485  1.0000
  Zn  Zn2       1.0  0.9991563471497755  0.4558093204191618  0.500128298621028  1.0000
  C   C31       1.0  0.9161281803434448  0.44854276187003705  0.7558644195418623  1.0000
  C   C32       1.0  0.9140003304177502  0.4556479381041467  0.22915578586062457  1.0000
  C   C33       1.0  0.9150261882689599  0.6892303881905721  0.4866729555046561  1.0000
  C   C34       1.0  0.9151022655023316  0.21495874955820216  0.49834732217403827  1.0000
  O   O2        1.0  0.9780414321779055  0.46052894231904096  0.2886589135343256  1.0000
  O   O3        1.0  0.9797363750415693  0.44929971651170586  0.707925179248825  1.0000
  O   O4        1.0  0.9788456481530309  0.643657989896624  0.490551088995379  1.0000
  O   O5        1.0  0.9789321012391942  0.26617067502277797  0.50603289047222  1.0000
  O   O6        1.0  0.851194515065775  0.6380183019411578  0.4789870024476304  1.0000
  O   O7        1.0  0.8520852415505512  0.4436615882476372  0.6963610152177465  1.0000
  O   O8        1.0  0.8503902917458092  0.45489075813405005  0.2770930159402396  1.0000
  O   O9        1.0  0.8512809612406822  0.2605324822151199  0.49446710098656355  1.0000
