data_image0
_chemical_formula_structural       NC12NC2H8C6NH7C6BrH4Zn2C4O8
_chemical_formula_sum              "N3 C30 H19 Br1 Zn2 O8"
_cell_length_a       19.240039667572717
_cell_length_b       9.274771166103584
_cell_length_c       9.276567756262418
_cell_angle_alpha    86.01325923358289
_cell_angle_beta     90.18620512450872
_cell_angle_gamma    90.59704977044065

_space_group_name_H-M_alt    "P 1"
_space_group_IT_number       1

loop_
  _space_group_symop_operation_xyz
  'x, y, z'

loop_
  _atom_site_type_symbol
  _atom_site_label
  _atom_site_symmetry_multiplicity
  _atom_site_fract_x
  _atom_site_fract_y
  _atom_site_fract_z
  _atom_site_occupancy
  N   N1        1.0  0.6598337347537504  0.5630611455405004  0.4077806580754406  1.0000
  C   C1        1.0  0.5996853662578449  0.5630612379292108  0.40778056700054854  1.0000
  C   C2        1.0  0.5248673295244913  0.5630613667081206  0.40778041442996926  1.0000
  C   C3        1.0  0.48821956889664214  0.49258232013151976  0.5226422557073835  1.0000
  C   C4        1.0  0.41554835768034226  0.49246010339692114  0.5227384937746302  1.0000
  C   C5        1.0  0.3785350946950772  0.5630614670484282  0.4077801616379555  1.0000
  C   C6        1.0  0.4158975114885005  0.63366304049929  0.29282204496525394  1.0000
  C   C7        1.0  0.4885677357423944  0.633540563524232  0.29291841941449515  1.0000
  C   C8        1.0  0.3013300036457434  0.5630613786428951  0.40778005593410344  1.0000
  C   C9        1.0  0.26358571288752664  0.4377166029246258  0.4544607656368443  1.0000
  C   C10       1.0  0.1909154568446714  0.43783434597827114  0.4543592289229575  1.0000
  C   C11       1.0  0.154997716111475  0.5630612358312022  0.4077801237704839  1.0000
  C   C12       1.0  0.0801796787681308  0.563061112196408  0.4077803998803404  1.0000
  N   N2        1.0  0.020031362062093605  0.5630610691165621  0.40778063119770924  1.0000
  C   C13       1.0  0.19202748656288177  0.6882882093320084  0.3612009597856415  1.0000
  C   C14       1.0  0.2646986158348842  0.688406150681546  0.3610992423175525  1.0000
  H   H1        1.0  0.5158008985418638  0.43802326402281033  0.6123222749915378  1.0000
  H   H2        1.0  0.3883279649459464  0.4387995976227214  0.6136545447704898  1.0000
  H   H3        1.0  0.3889313734944438  0.6873235757686558  0.20190593750035718  1.0000
  H   H4        1.0  0.5164161774956839  0.688099511265448  0.203238706318422  1.0000
  H   H5        1.0  0.2902377297203118  0.33902960540017957  0.4892184846764452  1.0000
  H   H6        1.0  0.1627662225885029  0.3401572893362259  0.49026120172710197  1.0000
  H   H7        1.0  0.16474689726052896  0.7859652388788123  0.32529900317383054  1.0000
  H   H8        1.0  0.29223307818053196  0.7870932356617952  0.32634147344696784  1.0000
  C   C15       1.0  0.8378033342005525  0.1394722648565776  0.40856599153278617  1.0000
  C   C16       1.0  0.8216014417053871  0.221518662987624  0.27971541398459265  1.0000
  C   C17       1.0  0.81188747234278  0.1551989140653245  0.15004733416114902  1.0000
  C   C18       1.0  0.8184103139718603  0.0054460926361108485  0.14829063385021146  1.0000
  C   C19       1.0  0.833324112882285  0.922062925506652  0.27537118138693445  1.0000
  C   C20       1.0  0.8420684110155521  0.9866390371345373  0.407007770326398  1.0000
  N   N3        1.0  0.7961103128316637  0.24033093610507314  0.019780613992806954  1.0000
  H   H9        1.0  0.9165331969054941  0.22222194248358848  0.723902988671312  1.0000
  H   H10       1.0  0.8180961121269819  0.33810594907443026  0.27916193835761677  1.0000
  H   H11       1.0  0.8112653498780091  0.9529814535761508  0.04852412861099786  1.0000
  H   H12       1.0  0.8363804461599117  0.8058584816502283  0.2712446168245626  1.0000
  H   H13       1.0  0.8922825922211134  0.6916745851265538  0.6215485796260952  1.0000
  H   H14       1.0  0.7913215561427913  0.35240437944106273  0.019733815911728625  1.0000
  H   H15       1.0  0.7890346120740273  0.19190671958963001  0.922383681975643  1.0000
  C   C21       1.0  0.8392515728181403  0.5589103198863472  0.9846677384699302  1.0000
  C   C22       1.0  0.7776633751970721  0.5936357304714646  0.05521471266435497  1.0000
  C   C23       1.0  0.7192235240602591  0.6402429260581105  0.9764280037439939  1.0000
  C   C24       1.0  0.7212745376691101  0.6530687061246611  0.8259085683597589  1.0000
  C   C25       1.0  0.7814923087551817  0.6167850905768257  0.7536373981404045  1.0000
  C   C26       1.0  0.8406201852391048  0.5672009915377825  0.8309060114642669  1.0000
  Br  Br1       1.0  0.6412948134449812  0.7180180129045013  0.7185388881401847  1.0000
  H   H16       1.0  0.9342065515060035  0.4278930669976846  0.2757429013196657  1.0000
  H   H17       1.0  0.6725043109288925  0.6677449432793614  0.03269481200057589  1.0000
  H   H18       1.0  0.781420016828538  0.6241533416669747  0.636573382063641  1.0000
  H   H19       1.0  0.9549047463678815  0.552306095627358  0.5515386585522857  1.0000
  Zn  Zn1       1.0  0.7637789925179004  0.563057353838305  0.40778896562092487  1.0000
  Zn  Zn2       1.0  0.9160860828495007  0.5630532097774195  0.4077841045049142  1.0000
  C   C27       1.0  0.8403309871957045  0.5598874002729053  0.6709594121144484  1.0000
  C   C28       1.0  0.8395357607520306  0.5662249847083998  0.14461379603140068  1.0000
  C   C29       1.0  0.8412493488283629  0.8264502012322027  0.40156056091988956  1.0000
  C   C30       1.0  0.8386173385468519  0.2996604514649801  0.41401272723381594  1.0000
  O   O1        1.0  0.8974308521624779  0.56867198741796  0.19829132088121848  1.0000
  O   O2        1.0  0.898033447051498  0.5574361600693816  0.6172777850189455  1.0000
  O   O3        1.0  0.8987742589389042  0.7726890076899864  0.3997363039038661  1.0000
  O   O4        1.0  0.8966899881802081  0.35341914905905947  0.41583269394425587  1.0000
  O   O5        1.0  0.7831750352122538  0.7726914145595756  0.39974037617565994  1.0000
  O   O6        1.0  0.7824342319224282  0.5574402992260019  0.6172817772769605  1.0000
  O   O7        1.0  0.7818316340249301  0.5686760593367494  0.19829358089727678  1.0000
  O   O8        1.0  0.7810907701625843  0.3534232117190548  0.4158350620064335  1.0000
