data_image0
_chemical_formula_structural       NC9NC5H8C6NCH9C6SCH8Zn2C4O8
_chemical_formula_sum              "N3 C32 H25 S1 Zn2 O8"
_cell_length_a       17.807436237873137
_cell_length_b       9.273386996610926
_cell_length_c       10.302812801239593
_cell_angle_alpha    85.46621381537472
_cell_angle_beta     89.39214003622364
_cell_angle_gamma    87.7895077601149

_space_group_name_H-M_alt    "P 1"
_space_group_IT_number       1

loop_
  _space_group_symop_operation_xyz
  'x, y, z'

loop_
  _atom_site_type_symbol
  _atom_site_label
  _atom_site_symmetry_multiplicity
  _atom_site_fract_x
  _atom_site_fract_y
  _atom_site_fract_z
  _atom_site_occupancy
  N   N1        1.0  0.6990028542714294  0.5420760838040349  0.5554055759441932  1.0000
  C   C1        1.0  0.6386285690308972  0.5029735406700169  0.5444403471829464  1.0000
  C   C2        1.0  0.5635295938405845  0.4543342832087307  0.5308007931104042  1.0000
  C   C3        1.0  0.5458709974047049  0.3749790264387274  0.4259430389113346  1.0000
  C   C4        1.0  0.4729544364970729  0.3276301621660809  0.41261748266784215  1.0000
  C   C5        1.0  0.4166500412426267  0.35921704611342875  0.5041178316248038  1.0000
  C   C6        1.0  0.3391578372260857  0.3090250920102948  0.4900380845905776  1.0000
  C   C7        1.0  0.2764860540518372  0.3998718901447107  0.5158405425174137  1.0000
  C   C8        1.0  0.20342841861516456  0.35229741101621803  0.5025289817127869  1.0000
  C   C9        1.0  0.1396902368244975  0.4461348214544822  0.5286910046520013  1.0000
  N   N2        1.0  0.08845776236116741  0.5215736073923904  0.5497245540044271  1.0000
  C   C10       1.0  0.19246058478521427  0.2135894680931647  0.4633900260405597  1.0000
  C   C11       1.0  0.2542750820827825  0.12272727742583543  0.4375792027919674  1.0000
  C   C12       1.0  0.32721567643832716  0.16986334626408905  0.45068890803866357  1.0000
  C   C13       1.0  0.4349970463298535  0.43912163840070395  0.6091939707326433  1.0000
  C   C14       1.0  0.5079676324012783  0.48625893862759306  0.6223642239343352  1.0000
  H   H1        1.0  0.588402217606495  0.3499940834912425  0.35428811684141914  1.0000
  H   H2        1.0  0.46036723458366274  0.2679793198011733  0.3298073415629368  1.0000
  H   H3        1.0  0.28439289623000114  0.5081740858252457  0.5445555383380112  1.0000
  H   H4        1.0  0.1362018137720135  0.1757688886393871  0.4528518913273676  1.0000
  H   H5        1.0  0.24566492649034996  0.015336379847102457  0.4076628860566287  1.0000
  H   H6        1.0  0.37425491503936686  0.09680799302944608  0.43174967868412617  1.0000
  H   H7        1.0  0.393185972066786  0.4635075838574571  0.6821438301532778  1.0000
  H   H8        1.0  0.5210757881890895  0.5472660958183082  0.7041311501851706  1.0000
  C   C15       1.0  0.8960447904615686  0.10804903151420932  0.5531692990203851  1.0000
  C   C16       1.0  0.9092398400279976  0.19082999899592945  0.4355894736636796  1.0000
  C   C17       1.0  0.9153592318963849  0.1260049684082698  0.31810560453559766  1.0000
  C   C18       1.0  0.9083761437658209  0.9760719213273654  0.3151987030994472  1.0000
  C   C19       1.0  0.8965054102646629  0.8922583222702705  0.43235143330934633  1.0000
  C   C20       1.0  0.8914230481056449  0.9555891948169699  0.5519720377413397  1.0000
  N   N3        1.0  0.9138602624627551  0.9062439095247736  0.19530037294865932  1.0000
  C   C21       1.0  0.9263791064403353  0.9834813733482884  0.06842537796770909  1.0000
  H   H9        1.0  0.9113977964533855  0.369385494807946  0.7660926758429178  1.0000
  H   H10       1.0  0.9130727842140497  0.3072741111541333  0.43394075863046466  1.0000
  H   H11       1.0  0.9248361961642545  0.19410818779915284  0.22978016727633976  1.0000
  H   H12       1.0  0.8929583548703327  0.776043983811931  0.43035507614929674  1.0000
  H   H13       1.0  0.9190922110109633  0.8227706098016333  0.8677806644159107  1.0000
  H   H14       1.0  0.9085473690740349  0.79415647841973  0.1980700581078585  1.0000
  H   H15       1.0  0.8797924625203327  0.06450744111505502  0.046547676317751245  1.0000
  H   H16       1.0  0.9807716795735568  0.03816968217527795  0.06784145222800064  1.0000
  H   H17       1.0  0.9282735280163338  0.9059450544682334  0.9915383408026283  1.0000
  C   C22       1.0  0.8937339495127955  0.5318191288307463  0.17132219480004673  1.0000
  C   C23       1.0  0.8676057971090865  0.6770646835156866  0.16029130062233587  1.0000
  C   C24       1.0  0.8544126755984871  0.7491316379344464  0.03783021745384985  1.0000
  C   C25       1.0  0.8676057301872174  0.6770645355959457  0.9251401321353274  1.0000
  C   C26       1.0  0.8937339008220347  0.5318191216716961  0.9338190991543498  1.0000
  C   C27       1.0  0.9066472147637362  0.4598947390593168  0.05745122488757648  1.0000
  S   S1        1.0  0.8211838526374566  0.934803035684836  0.02522907128152685  1.0000
  C   C28       1.0  0.7226100311582316  0.889587148707925  0.030254341313338033  1.0000
  H   H18       1.0  0.9035525632826362  0.4770660893642414  0.5027940030193501  1.0000
  H   H19       1.0  0.8572266665905981  0.7347566824805276  0.24647645456311154  1.0000
  H   H20       1.0  0.8572265172703432  0.73475648252201  0.8311261440693496  1.0000
  H   H21       1.0  0.9267874418500562  0.34785155543504587  0.06505363589326207  1.0000
  H   H22       1.0  0.9035511681246795  0.4770654138134324  0.6097784389744598  1.0000
  H   H23       1.0  0.7096344997877359  0.826090581556102  0.9468930901969945  1.0000
  H   H24       1.0  0.709634813690039  0.8260920230338327  0.12312777547532285  1.0000
  H   H25       1.0  0.6872866086827982  0.9910247335852546  0.02368446591489604  1.0000
  Zn  Zn1       1.0  0.8113911478614941  0.5361556613770981  0.5537736695889051  1.0000
  Zn  Zn2       1.0  0.9760695147198972  0.5274822665042174  0.5513671502170714  1.0000
  C   C29       1.0  0.8937635852388096  0.5260702340272374  0.7896990163755112  1.0000
  C   C30       1.0  0.8936988656960527  0.537569419968502  0.3154419020053265  1.0000
  C   C31       1.0  0.8922928006281495  0.7953862801925542  0.5470248438031096  1.0000
  C   C32       1.0  0.8951696035680992  0.26825164296072446  0.5581161470649416  1.0000
  O   O1        1.0  0.9561817075722936  0.5362014663018564  0.3628965396270343  1.0000
  O   O2        1.0  0.9562678193466869  0.520854193010283  0.7404175140436056  1.0000
  O   O3        1.0  0.9550792997160314  0.7383303506261212  0.5444564129230272  1.0000
  O   O4        1.0  0.9573701709530895  0.3187253219689204  0.5588575442102992  1.0000
  O   O5        1.0  0.830090435431649  0.7449126088737701  0.5462832764100727  1.0000
  O   O6        1.0  0.8312789456042643  0.5274381850617673  0.7422443058578334  1.0000
  O   O7        1.0  0.8311928341541708  0.5427854080624877  0.3647217706040504  1.0000
  O   O8        1.0  0.8323812975881727  0.3253092534080244  0.5606828725390247  1.0000
