data_image0
_chemical_formula_structural       NC9NC4H8C8H6C8NH7Zn2C4O8
_chemical_formula_sum              "N3 C33 H21 Zn2 O8"
_cell_length_a       16.32274767691083
_cell_length_b       9.27514070457351
_cell_length_c       9.274266800404106
_cell_angle_alpha    86.12813201358244
_cell_angle_beta     89.02225532851281
_cell_angle_gamma    90.11802364943966

_space_group_name_H-M_alt    "P 1"
_space_group_IT_number       1

loop_
  _space_group_symop_operation_xyz
  'x, y, z'

loop_
  _atom_site_type_symbol
  _atom_site_label
  _atom_site_symmetry_multiplicity
  _atom_site_fract_x
  _atom_site_fract_y
  _atom_site_fract_z
  _atom_site_occupancy
  N   N1        1.0  0.787738791455284  0.5556396660515823  0.40163978468384615  1.0000
  C   C1        1.0  0.7353685759769439  0.5025167422367702  0.34124924984925253  1.0000
  C   C2        1.0  0.670271879825062  0.4365376571792395  0.26624372270930835  1.0000
  C   C3        1.0  0.6817657556882938  0.34629000693418854  0.16364474445635288  1.0000
  C   C4        1.0  0.6023713928634657  0.30224870463553133  0.11357984574133749  1.0000
  C   C5        1.0  0.5434804100413275  0.3667021977954832  0.18685699164344033  1.0000
  C   C6        1.0  0.45353179509395936  0.34966774833690817  0.1674944174014969  1.0000
  C   C7        1.0  0.3979849153818019  0.42479239548556996  0.25289545615672426  1.0000
  C   C8        1.0  0.3132668903311115  0.41023393412488857  0.23634697377884015  1.0000
  C   C9        1.0  0.2573095965823916  0.487668044684314  0.32437254546872896  1.0000
  N   N2        1.0  0.21233886738902133  0.5499123243127209  0.3951301971253858  1.0000
  C   C10       1.0  0.2830426242941078  0.32042933121291584  0.13426002917238544  1.0000
  C   C11       1.0  0.33726764890857847  0.24540419499758517  0.04897248918540063  1.0000
  C   C12       1.0  0.4218266225161376  0.25957051739253423  0.06507505809230274  1.0000
  C   C13       1.0  0.5812957680514672  0.4606824566961991  0.29369654285437025  1.0000
  H   H1        1.0  0.740650413016812  0.3111969325902726  0.12374633361793251  1.0000
  H   H2        1.0  0.5940280562404683  0.2284894110265612  0.029725623624204278  1.0000
  H   H3        1.0  0.4201430372854906  0.49490002842822883  0.332591644917722  1.0000
  H   H4        1.0  0.217643046631957  0.3084361769378605  0.12062776150163579  1.0000
  H   H5        1.0  0.31371389315463494  0.17593196357177934  0.9699988882818465  1.0000
  H   H6        1.0  0.4615687731558172  0.19955524106378356  0.9968509538040049  1.0000
  H   H7        1.0  0.5637972382473067  0.42295502974631405  0.40628180893173926  1.0000
  H   H8        1.0  0.5653022898680743  0.5760341610877022  0.2693593009905148  1.0000
  C   C14       1.0  0.9975583761768282  0.12936113695314932  0.39741490951333747  1.0000
  C   C15       1.0  0.009837125816184894  0.2116521690630293  0.26573149068259316  1.0000
  C   C16       1.0  0.029237995524571177  0.14512935714407726  0.1391054138355794  1.0000
  C   C17       1.0  0.03682160181962235  0.9951176791659461  0.14172956812830928  1.0000
  C   C18       1.0  0.02350396828073853  0.9112421204577921  0.2710663990727822  1.0000
  C   C19       1.0  0.0025269927584399233  0.97617970472189  0.39936743601121283  1.0000
  C   C20       1.0  0.057358014212048225  0.9267984644628151  0.011056796651851997  1.0000
  C   C21       1.0  0.07455278973870726  0.8695829311248587  0.9016556419087615  1.0000
  H   H9        1.0  0.009397540818459442  0.20836057376015665  0.7514327919766723  1.0000
  H   H10       1.0  0.006333618063353973  0.3284912196310974  0.261369893992152  1.0000
  H   H11       1.0  0.03912594319735452  0.21099025485094658  0.03929997549383612  1.0000
  H   H12       1.0  0.02763483820578316  0.7945778338167385  0.27082499545787786  1.0000
  H   H13       1.0  0.007352943532977771  0.6793763853603287  0.6379386693233797  1.0000
  H   H14       1.0  0.08964611444153542  0.8193580150194223  0.8056244037893796  1.0000
  C   C22       1.0  0.0019085471614845805  0.5495924482872407  0.9750442706562703  1.0000
  C   C23       1.0  0.9536923186014231  0.4470165377404729  0.05668568704429622  1.0000
  C   C24       1.0  0.9005841813883555  0.35572122706409504  0.9893824622081966  1.0000
  C   C25       1.0  0.8939317710622953  0.3656118471398845  0.8388100656760806  1.0000
  C   C26       1.0  0.9432525167563744  0.4647254570433535  0.7558372066508059  1.0000
  C   C27       1.0  0.9981768183263069  0.5559483886753338  0.8217380016987947  1.0000
  C   C28       1.0  0.8375370049745201  0.26565780421974483  0.7663516042206604  1.0000
  C   C29       1.0  0.8811294275587815  0.133240299706682  0.7341524074076118  1.0000
  N   N3        1.0  0.9155399273706755  0.02873223827758387  0.7087369028306911  1.0000
  H   H15       1.0  0.09402321579405326  0.8657105589187568  0.0538275542545672  1.0000
  H   H16       1.0  0.9557402466501731  0.4395208252278074  0.17365042377473916  1.0000
  H   H17       1.0  0.8639693644849286  0.2780418989105794  0.05500052252254383  1.0000
  H   H18       1.0  0.9400811899906092  0.4680583830349581  0.639002712017755  1.0000
  H   H19       1.0  0.06315510850626427  0.7659400493600896  0.5249069498311932  1.0000
  H   H20       1.0  0.8144776060399375  0.3187682476701515  0.6640625707573093  1.0000
  H   H21       1.0  0.7836289485820923  0.23675717127881304  0.8372686685446227  1.0000
  Zn  Zn1       1.0  0.9102691483105839  0.5539830715786296  0.3997695749328771  1.0000
  Zn  Zn2       1.0  0.08980839523117257  0.5515571755408337  0.39701218984967945  1.0000
  C   C30       1.0  0.9988466824338188  0.5490029302213864  0.6616815700317853  1.0000
  C   C31       1.0  0.0012328317217571445  0.5565391107468897  0.1351003103317916  1.0000
  C   C32       1.0  0.0016089374547287824  0.8160698999285463  0.3932535896546538  1.0000
  C   C33       1.0  0.9984705049336232  0.28947041011860297  0.40352836451549456  1.0000
  O   O1        1.0  0.06914022706883038  0.5579435688339986  0.187770151604431  1.0000
  O   O2        1.0  0.06720541669092461  0.5457561823208463  0.6069185197786311  1.0000
  O   O3        1.0  0.06943504746531537  0.7614161615453287  0.39016104401470186  1.0000
  O   O4        1.0  0.06691053556678267  0.3422835999403502  0.4045275202401754  1.0000
  O   O5        1.0  0.9331669467070829  0.7632566480084648  0.3922542454757617  1.0000
  O   O6        1.0  0.930937326432025  0.5475984005344616  0.6090116483665002  1.0000
  O   O7        1.0  0.9328721442087844  0.559785723790192  0.18986154680871903  1.0000
  O   O8        1.0  0.9306424521665027  0.34412574539506224  0.4066190235060283  1.0000
