data_image0
_chemical_formula_structural       NC10NC3NCH9C12OCH12C12BrH8Zn2C4O8
_chemical_formula_sum              "N3 C43 H29 O9 Br1 Zn2"
_cell_length_a       19.437513618241372
_cell_length_b       10.299790755002418
_cell_length_c       10.299148005577397
_cell_angle_alpha    85.54790519994738
_cell_angle_beta     90.32056870964719
_cell_angle_gamma    89.50469088654314

_space_group_name_H-M_alt    "P 1"
_space_group_IT_number       1

loop_
  _space_group_symop_operation_xyz
  'x, y, z'

loop_
  _atom_site_type_symbol
  _atom_site_label
  _atom_site_symmetry_multiplicity
  _atom_site_fract_x
  _atom_site_fract_y
  _atom_site_fract_z
  _atom_site_occupancy
  N   N1        1.0  0.647966265118687  0.4106761605030586  0.5755602282954657  1.0000
  C   C1        1.0  0.5890308006133551  0.42768664590964595  0.5725840751812621  1.0000
  C   C2        1.0  0.5155876638841291  0.44893968512362487  0.5688898889102956  1.0000
  C   C3        1.0  0.47384394408315983  0.34775292468251817  0.557230030510288  1.0000
  C   C4        1.0  0.3979538424806336  0.3578190519372899  0.5500083372222145  1.0000
  C   C5        1.0  0.3583531051754252  0.4386536387653106  0.6157540138370291  1.0000
  C   C6        1.0  0.28217398794173015  0.4300471595562574  0.6073095049007619  1.0000
  C   C7        1.0  0.2490567480970466  0.3087026127789174  0.611953091252736  1.0000
  C   C8        1.0  0.17732454606160372  0.3023323655641165  0.6047846881195739  1.0000
  C   C9        1.0  0.13773896047119893  0.4168339102513361  0.5933349476937879  1.0000
  C   C10       1.0  0.06389237351332251  0.41012552039235045  0.5859984450698346  1.0000
  N   N2        1.0  0.004524815441037901  0.40473256491211873  0.5801003553878679  1.0000
  C   C11       1.0  0.1701395042326881  0.5378677347555761  0.589436673185844  1.0000
  C   C12       1.0  0.2418560578761141  0.5444919580925214  0.596667100756455  1.0000
  C   C13       1.0  0.3870042314645254  0.5309189184494294  0.7056782837557765  1.0000
  N   N3        1.0  0.44398341984394607  0.594135160947695  0.6852731186692179  1.0000
  C   C14       1.0  0.48784786238327305  0.5848980974055482  0.5721601419311366  1.0000
  H   H1        1.0  0.49624524432502354  0.25270017823307156  0.545108230892771  1.0000
  H   H2        1.0  0.3732620323178814  0.2883199064829584  0.49168740051059767  1.0000
  H   H3        1.0  0.27851901589407696  0.2187893025852605  0.6229744512023454  1.0000
  H   H4        1.0  0.15274499401606864  0.2081062041778503  0.6086720302795874  1.0000
  H   H5        1.0  0.1399916021935758  0.6271256500983178  0.580727571569607  1.0000
  H   H6        1.0  0.2659540264709037  0.6391309183244271  0.5927642981341188  1.0000
  H   H7        1.0  0.3569812412007325  0.5512862884653014  0.7900489762958761  1.0000
  H   H8        1.0  0.5305883107301771  0.6552086142257418  0.5779238294532795  1.0000
  H   H9        1.0  0.45819417152441294  0.6130259379411691  0.4815102358161829  1.0000
  C   C15       1.0  0.8263106563584165  0.02633548808590591  0.57787009224166  1.0000
  C   C16       1.0  0.806362789723881  0.015481814702053004  0.7090609860962914  1.0000
  C   C17       1.0  0.7962004650916291  0.8928468056084913  0.7755025616306392  1.0000
  C   C18       1.0  0.8062392015207135  0.7802015916996192  0.7089936239074744  1.0000
  C   C19       1.0  0.8261870378434065  0.7890630509629493  0.5778017971036815  1.0000
  C   C20       1.0  0.8361126699616598  0.9125728678710125  0.5129753084468336  1.0000
  C   C21       1.0  0.7751009434071434  0.8824182673884059  0.9142964709025658  1.0000
  C   C22       1.0  0.7248900271638686  0.7923821365333469  0.9587250175930325  1.0000
  C   C23       1.0  0.7050937067169907  0.7828397341138204  0.08921878273831851  1.0000
  C   C24       1.0  0.7350628084237576  0.8626720871663939  0.17695309478433688  1.0000
  C   C25       1.0  0.785456424812679  0.9533139709093952  0.1343986774183068  1.0000
  C   C26       1.0  0.8050395874105222  0.9624988195938061  0.003375471026647263  1.0000
  O   O1        1.0  0.8172376945175186  0.03547127069401835  0.2186761421535668  1.0000
  C   C27       1.0  0.8024543172213985  0.036673983623763284  0.35383103164488006  1.0000
  H   H10       1.0  0.8339417521459577  0.3579221757422406  0.5279024065906723  1.0000
  H   H11       1.0  0.7977706432761209  0.10264342126963144  0.7593829598011566  1.0000
  H   H12       1.0  0.7993678955022572  0.6854078997706436  0.7602766714868643  1.0000
  H   H13       1.0  0.8515021357697033  0.9201776130216365  0.4117670833716549  1.0000
  H   H14       1.0  0.8337538443660721  0.4649887805283711  0.5277956557879593  1.0000
  H   H15       1.0  0.7002981914685046  0.7305735241751994  0.8921989169098352  1.0000
  H   H16       1.0  0.6662289048894854  0.713512219183415  0.1224044531803974  1.0000
  H   H17       1.0  0.7187335103666805  0.8531788657476974  0.27741698462290687  1.0000
  H   H18       1.0  0.8444591359154983  0.03139063773024863  0.9717098004819469  1.0000
  H   H19       1.0  0.8143265595663638  0.9399390215576342  0.40460741265144956  1.0000
  H   H20       1.0  0.8349100751748523  0.11076529520286459  0.3964608057729926  1.0000
  H   H21       1.0  0.747527842658893  0.06249795644803523  0.3675678726236374  1.0000
  C   C28       1.0  0.8263426050728865  0.4077497616473924  0.19644896300707737  1.0000
  C   C29       1.0  0.7616181744563355  0.469608367356553  0.19018245915076482  1.0000
  C   C30       1.0  0.7287046390751163  0.5009203522647905  0.06986571311157476  1.0000
  C   C31       1.0  0.7613885648776989  0.46953938998633116  0.9549025069159292  1.0000
  C   C32       1.0  0.8261550561850747  0.407648816407326  0.9592229374105219  1.0000
  C   C33       1.0  0.858233136114404  0.3771331305317145  0.08041480367994591  1.0000
  C   C34       1.0  0.6602344944013033  0.56636121536658  0.06428143064044711  1.0000
  C   C35       1.0  0.6457663416826824  0.6679199304593888  0.14416635655945997  1.0000
  C   C36       1.0  0.5812911778150345  0.7294035247406607  0.13871522095329114  1.0000
  C   C37       1.0  0.5305512682598721  0.6903057137705227  0.05370797950802175  1.0000
  C   C38       1.0  0.544328278884432  0.5895453834725262  0.9739617189255374  1.0000
  C   C39       1.0  0.608744986083749  0.5278407986929798  0.9790195911303785  1.0000
  Br  Br1       1.0  0.4425186657800474  0.7744436473759764  0.04652956730831948  1.0000
  H   H22       1.0  0.7362269972704516  0.49197781480366554  0.27919673764383607  1.0000
  H   H23       1.0  0.7366761052272532  0.495046237463864  0.8617691667330813  1.0000
  H   H24       1.0  0.9081577001592783  0.3294239659002316  0.08453228500454735  1.0000
  H   H25       1.0  0.9485903988920678  0.29156564086063724  0.7600310068055506  1.0000
  H   H26       1.0  0.684581277931211  0.7008899401998367  0.2095652393561396  1.0000
  H   H27       1.0  0.5708889237084733  0.8076430840809541  0.20038044343325234  1.0000
  H   H28       1.0  0.5051059999946936  0.5587341453373926  0.9082504601361516  1.0000
  H   H29       1.0  0.6179961087132139  0.44893113840972343  0.9175408652520782  1.0000
  Zn  Zn1       1.0  0.7508613648811091  0.40895747699563634  0.5768779205249315  1.0000
  Zn  Zn2       1.0  0.9016297209944977  0.40644057746194123  0.5787933344917229  1.0000
  C   C40       1.0  0.8261898193656069  0.402494238684449  0.8150427952079382  1.0000
  C   C41       1.0  0.826302912598797  0.41290542689083054  0.34062860805085204  1.0000
  C   C42       1.0  0.8262081184090112  0.6448920742450817  0.5726392818540833  1.0000
  C   C43       1.0  0.8262845623445945  0.17050603187781513  0.5830321901326394  1.0000
  O   O2        1.0  0.8835053977694634  0.41367489924847556  0.38974350414996667  1.0000
  O   O3        1.0  0.883417028193444  0.3998135181451261  0.7673812802138529  1.0000
  O   O4        1.0  0.8834310332739689  0.595552848596516  0.5716387182157504  1.0000
  O   O5        1.0  0.8834913412643474  0.21793557895904  0.5854859681143499  1.0000
  O   O6        1.0  0.7689996931614205  0.5974624763588461  0.5701852862418366  1.0000
  O   O7        1.0  0.7689856878418545  0.40172470622014783  0.7659277788515382  1.0000
  O   O8        1.0  0.7690740578548756  0.4155860422734465  0.38828844131753165  1.0000
  O   O9        1.0  0.7690600013245117  0.21984671268236528  0.5840310026551662  1.0000
