data_image0
_chemical_formula_structural       NC6NC2H4C12H9C12H9Zn2C4O8
_chemical_formula_sum              "N2 C36 H22 Zn2 O8"
_cell_length_a       14.927258858638513
_cell_length_b       14.389296765108565
_cell_length_c       14.389300134226545
_cell_angle_alpha    85.54379651707656
_cell_angle_beta     90.22201251492375
_cell_angle_gamma    90.35206684544632

_space_group_name_H-M_alt    "P 1"
_space_group_IT_number       1

loop_
  _space_group_symop_operation_xyz
  'x, y, z'

loop_
  _atom_site_type_symbol
  _atom_site_label
  _atom_site_symmetry_multiplicity
  _atom_site_fract_x
  _atom_site_fract_y
  _atom_site_fract_z
  _atom_site_occupancy
  N   N1        1.0  0.8461487644837425  0.05667920285714875  0.015116964804630095  1.0000
  C   C1        1.0  0.7686222732286206  0.05667918426582562  0.015116970873284561  1.0000
  C   C2        1.0  0.672189766021381  0.056679259516840816  0.015116941776147533  1.0000
  C   C3        1.0  0.6247595852883742  0.044941630637037155  0.932583074683897  1.0000
  C   C4        1.0  0.5310482737443463  0.04494165074927148  0.9325829891148283  1.0000
  C   C5        1.0  0.48437370137848873  0.056679145031498956  0.015116948986300338  1.0000
  C   C6        1.0  0.38794112717971146  0.05667922028457938  0.015116919885414302  1.0000
  N   N2        1.0  0.3104146359245899  0.05667920169325624  0.015116925954069332  1.0000
  C   C7        1.0  0.5318038151199581  0.06841677391336809  0.09765081607480208  1.0000
  C   C8        1.0  0.6255151266639858  0.06841675380113355  0.09765090164387091  1.0000
  H   H1        1.0  0.6601618273469765  0.03580909710238343  0.8683669898921872  1.0000
  H   H2        1.0  0.4950581725959442  0.03580922404326547  0.8683669920777275  1.0000
  H   H3        1.0  0.4964016402523389  0.07754929786414076  0.1618669704514527  1.0000
  H   H4        1.0  0.6615052284379505  0.07754923997166153  0.16186697245178816  1.0000
  C   C9        1.0  0.07662499703226436  0.7848311757296589  0.003599848600177034  1.0000
  C   C10       1.0  0.12229870110980762  0.7264355323507776  0.9460839179476781  1.0000
  C   C11       1.0  0.12552424621307368  0.6302897608681761  0.9688211397070474  1.0000
  C   C12       1.0  0.08321085956854463  0.5904331231464351  0.049579768438011707  1.0000
  C   C13       1.0  0.03760753202022363  0.648924398580881  0.10707821195200608  1.0000
  C   C14       1.0  0.034318646512907724  0.7450655914941253  0.08430296123944205  1.0000
  C   C15       1.0  0.08666715521265567  0.48826041377328816  0.07378163185524014  1.0000
  C   C16       1.0  0.07666837919665498  0.4254007025977495  0.0041744770444511765  1.0000
  C   C17       1.0  0.07994697358270325  0.3285197654974015  0.026641801361225848  1.0000
  C   C18       1.0  0.09340589988365222  0.2949488282878875  0.11990059469706138  1.0000
  C   C19       1.0  0.10333070020117298  0.3568993754197363  0.18927990876736092  1.0000
  C   C20       1.0  0.09998404983743471  0.4529103624199585  0.16660080518396259  1.0000
  H   H5        1.0  0.15580468175261208  0.7550222477759367  0.8835421820275022  1.0000
  H   H6        1.0  0.1621975842901695  0.5872359050720494  0.9237946745701204  1.0000
  H   H7        1.0  0.003407452823816158  0.6201695546379338  0.16912803986068314  1.0000
  H   H8        1.0  0.9983966499626487  0.7881578930301177  0.12989394528151477  1.0000
  H   H9        1.0  0.06510780286106256  0.4520047027411944  0.9326689909330039  1.0000
  H   H10       1.0  0.06494569828164636  0.12112889081695039  0.9266710342714135  1.0000
  H   H11       1.0  0.09629018178809684  0.22081242256539513  0.1393617768368267  1.0000
  H   H12       1.0  0.11391114021446923  0.330380685315928  0.2609249461652313  1.0000
  H   H13       1.0  0.10900604233579705  0.4995456897951295  0.22148027211434063  1.0000
  C   C21       1.0  0.07733199582164589  0.06827132667183507  0.7414871334897497  1.0000
  C   C22       1.0  0.1264377932723224  0.12311040510452063  0.6742681109405193  1.0000
  C   C23       1.0  0.12826809550884333  0.10022837430897577  0.581653682368126  1.0000
  C   C24       1.0  0.08109636712303225  0.02199497221932998  0.5542303701836921  1.0000
  C   C25       1.0  0.03206193685396742  0.9671694006094754  0.6215424100667223  1.0000
  C   C26       1.0  0.030170612499362842  0.9900929957827764  0.7141462367537046  1.0000
  C   C27       1.0  0.08306755052358544  0.9976376700879305  0.4558164615031419  1.0000
  C   C28       1.0  0.07734018943233957  0.06769518607071268  0.38214592130829717  1.0000
  C   C29       1.0  0.07923995601441924  0.045079582054635685  0.28875454514396015  1.0000
  C   C30       1.0  0.08697594513426354  0.9512138590519461  0.2696678878429546  1.0000
  C   C31       1.0  0.09264332222422916  0.8813879998102709  0.3423938496392181  1.0000
  C   C32       1.0  0.09068858488185727  0.9042188801627119  0.4348822424531711  1.0000
  H   H14       1.0  0.024449154613618965  0.05323398459330097  0.9730536142434913  1.0000
  H   H15       1.0  0.16370488054865862  0.18365481480177087  0.6932275715129519  1.0000
  H   H16       1.0  0.16762659981764727  0.14310741206749084  0.5316942119478636  1.0000
  H   H17       1.0  0.994132006232361  0.9071553344234059  0.6023371773896489  1.0000
  H   H18       1.0  0.9915277251299155  0.9466078657235428  0.7642331524859571  1.0000
  H   H19       1.0  0.07016992663763855  0.13973618374267177  0.3976416561651679  1.0000
  H   H20       1.0  0.08866582853049487  0.9316217957353369  0.1985543010061861  1.0000
  H   H21       1.0  0.09882675432425847  0.8092630904407421  0.32700305121240336  1.0000
  H   H22       1.0  0.09634078699431317  0.8489200067377375  0.49004336784856695  1.0000
  Zn  Zn1       1.0  0.9801258778815934  0.056676493788869964  0.015122232698548515  1.0000
  Zn  Zn2       1.0  0.1764375137274783  0.05667400415965693  0.015118980466434007  1.0000
  C   C33       1.0  0.07885479483008861  0.04577542381817466  0.1851529744532374  1.0000
  C   C34       1.0  0.07771074795163013  0.06757623827019943  0.8450883796365121  1.0000
  C   C35       1.0  0.0793014947339466  0.22590839142775554  0.018573184249582764  1.0000
  C   C36       1.0  0.0772639744378012  0.8874421563394597  0.011668172383616728  1.0000
  O   O1        1.0  0.152337078666693  0.06733797679103293  0.8798564988855844  1.0000
  O   O2        1.0  0.15322444817775271  0.046011108726536465  0.15038208900188166  1.0000
  O   O3        1.0  0.1535841630919479  0.19147071711677122  0.015867770643580914  1.0000
  O   O4        1.0  0.15197729656151426  0.921878377984679  0.014370747658944751  1.0000
  O   O5        1.0  0.004586028056019264  0.19147211996591285  0.01587046550228888  1.0000
  O   O6        1.0  0.004226319760257008  0.04601362589890211  0.15038478131339078  1.0000
  O   O7        1.0  0.003338946205841084  0.06734050917977603  0.8798580695187779  1.0000
  O   O8        1.0  0.0029791643001080286  0.921880900791606  0.014372387873329956  1.0000
