data_image0
_chemical_formula_structural       NC10NC3NCH9C12SCH12C15H11Zn2C4O8
_chemical_formula_sum              "N3 C46 H32 S1 Zn2 O8"
_cell_length_a       19.437513618241372
_cell_length_b       10.299776766347529
_cell_length_c       10.299157797200024
_cell_angle_alpha    85.54587523225568
_cell_angle_beta     90.36969697792763
_cell_angle_gamma    89.50378728869872

_space_group_name_H-M_alt    "P 1"
_space_group_IT_number       1

loop_
  _space_group_symop_operation_xyz
  'x, y, z'

loop_
  _atom_site_type_symbol
  _atom_site_label
  _atom_site_symmetry_multiplicity
  _atom_site_fract_x
  _atom_site_fract_y
  _atom_site_fract_z
  _atom_site_occupancy
  N   N1        1.0  0.647306830226141  0.4108798878177813  0.5756875072671879  1.0000
  C   C1        1.0  0.5883698760438588  0.42789070372794447  0.5727131138717876  1.0000
  C   C2        1.0  0.5149248891325411  0.4491441522459308  0.5690211265918788  1.0000
  C   C3        1.0  0.4731766683954606  0.3479598222136878  0.5573503353853233  1.0000
  C   C4        1.0  0.3972832003725465  0.3580269626167684  0.5501295969315316  1.0000
  C   C5        1.0  0.3577117384434055  0.4388511588191684  0.6158849012783757  1.0000
  C   C6        1.0  0.2815288468900454  0.43024600218592046  0.6074393443926877  1.0000
  C   C7        1.0  0.2484146855989531  0.3089015811989462  0.6120701150217055  1.0000
  C   C8        1.0  0.17667927216226378  0.3025324503659213  0.6049009216869117  1.0000
  C   C9        1.0  0.13708756522484591  0.41703493460607916  0.5934631623043765  1.0000
  C   C10       1.0  0.06323769305995251  0.4103276885852827  0.5861258308983373  1.0000
  N   N2        1.0  0.0038674938851466015  0.4049356526783264  0.5802270749455012  1.0000
  C   C11       1.0  0.169485372069569  0.5380685238315881  0.5895776823203864  1.0000
  C   C12       1.0  0.24120516331869127  0.5446916197817737  0.5968089280525967  1.0000
  C   C13       1.0  0.3864030519763808  0.5311023504285999  0.705820396102963  1.0000
  N   N3        1.0  0.443372451744764  0.5943212203264159  0.6854216226508221  1.0000
  C   C14       1.0  0.4871854941139679  0.5851011549681012  0.5723058729866782  1.0000
  H   H1        1.0  0.4955732086857709  0.252909533832475  0.5452182472019866  1.0000
  H   H2        1.0  0.372565403381289  0.2885370194309778  0.49180035415545414  1.0000
  H   H3        1.0  0.2778826841770482  0.21898722922141725  0.623082098917094  1.0000
  H   H4        1.0  0.1521022387753279  0.20830634450844968  0.6087783166734051  1.0000
  H   H5        1.0  0.13933279668962437  0.6273271391930768  0.5808779237692088  1.0000
  H   H6        1.0  0.2653006029351291  0.6393305240065901  0.5929161162065837  1.0000
  H   H7        1.0  0.3564182937462262  0.551456950349132  0.790194588545216  1.0000
  H   H8        1.0  0.5299280059140877  0.6554103330911598  0.578077120227072  1.0000
  H   H9        1.0  0.4574903279459045  0.613242377615953  0.48165751868992324  1.0000
  C   C15       1.0  0.8256553304377464  0.026541470096162364  0.5779565829410291  1.0000
  C   C16       1.0  0.8298181912362173  0.014871494125763737  0.7145309430668392  1.0000
  C   C17       1.0  0.8318613065624915  0.8918207061736526  0.783738773964769  1.0000
  C   C18       1.0  0.8296866376134038  0.7795859065770065  0.7145444593329278  1.0000
  C   C19       1.0  0.825525614161048  0.7892639046190387  0.5779693731764758  1.0000
  C   C20       1.0  0.8235328658891783  0.9131799355846917  0.5104399392248804  1.0000
  C   C21       1.0  0.8362575615372307  0.8805392208846152  0.9282189406371666  1.0000
  C   C22       1.0  0.7968970198230735  0.7877139299760925  0.0017645548811278159  1.0000
  C   C23       1.0  0.8010550725131539  0.7773308444319071  0.13773423167856413  1.0000
  C   C24       1.0  0.8444025056467978  0.8594968212962654  0.20196288617449537  1.0000
  C   C25       1.0  0.8839275199806547  0.9517451931209842  0.12979250585757474  1.0000
  C   C26       1.0  0.8798703499257431  0.9624764885565248  0.9938136978893299  1.0000
  S   S1        1.0  0.8498137288595654  0.8457120915260347  0.3764316543221162  1.0000
  C   C27       1.0  0.7806819768113177  0.9629208699840515  0.3950812759628918  1.0000
  H   H10       1.0  0.8240961588372113  0.35844129140081427  0.5259158967223567  1.0000
  H   H11       1.0  0.830532505350404  0.1016756100046181  0.7675012649720537  1.0000
  H   H12       1.0  0.8321948236908356  0.6845153645970752  0.7673414730830381  1.0000
  H   H13       1.0  0.8203218661874203  0.9214143297141618  0.40507863349723544  1.0000
  H   H14       1.0  0.8239057275438741  0.46549846263450956  0.5259325799747925  1.0000
  H   H15       1.0  0.7622531035547092  0.7243408004183609  0.9542067760199194  1.0000
  H   H16       1.0  0.7703065534497965  0.7057653446573404  0.1930672964708383  1.0000
  H   H17       1.0  0.917839525557444  0.01518594864578615  0.1789299877019144  1.0000
  H   H18       1.0  0.9114875114198027  0.03365815482672452  0.939904812328735  1.0000
  H   H19       1.0  0.7944447527405939  0.059035020617111085  0.3463761681744345  1.0000
  H   H20       1.0  0.7727317632289098  0.973702891796968  0.500265091009736  1.0000
  H   H21       1.0  0.7322603618687691  0.9282075791451585  0.3523403973957114  1.0000
  C   C28       1.0  0.8255106735169118  0.40801027067182705  0.19656992584210167  1.0000
  C   C29       1.0  0.7538524142861847  0.39122571764504654  0.19583241928069153  1.0000
  C   C30       1.0  0.7176668946377488  0.38260401473612704  0.07831803350396484  1.0000
  C   C31       1.0  0.7540568705083458  0.3910135794965173  0.960567723769117  1.0000
  C   C32       1.0  0.8256702239181691  0.407795086477571  0.9593559753066653  1.0000
  C   C33       1.0  0.8609789503656514  0.416189676947033  0.0778820376416196  1.0000
  C   C34       1.0  0.641908066251189  0.36486433938453966  0.07858462243800601  1.0000
  C   C35       1.0  0.6109652536560203  0.278402078898683  0.9970819826556828  1.0000
  C   C36       1.0  0.5396730062907527  0.261801349308864  0.9973651146863372  1.0000
  C   C37       1.0  0.4980538982831136  0.3306749787191146  0.07966660763138167  1.0000
  C   C38       1.0  0.5286283656134126  0.41798891820223383  0.16018785844412697  1.0000
  C   C39       1.0  0.5999199185714296  0.4345938576810048  0.16005266837920185  1.0000
  C   C40       1.0  0.4212515890238535  0.3151403820352668  0.07762551181140355  1.0000
  C   C41       1.0  0.3902935880661549  0.409422940858192  0.9798222331276129  1.0000
  C   C42       1.0  0.36485071890686394  0.48695119389218205  0.8994010614668363  1.0000
  H   H22       1.0  0.9608167531119115  0.4388946225827256  0.4053172754076427  1.0000
  H   H23       1.0  0.7261804793945335  0.38306227310511076  0.2870176805675344  1.0000
  H   H24       1.0  0.7262853516306297  0.3862385864365976  0.8695817430258583  1.0000
  H   H25       1.0  0.9162164978630697  0.4291299799581866  0.07766311312667741  1.0000
  H   H26       1.0  0.8532179520882327  0.41420833291843473  0.6314175671384517  1.0000
  H   H27       1.0  0.6419819202675103  0.2225199755768328  0.934103735790154  1.0000
  H   H28       1.0  0.5169059078469507  0.19502590895378275  0.9335148507040962  1.0000
  H   H29       1.0  0.4972099678021419  0.47356854352164884  0.22281598549064688  1.0000
  H   H30       1.0  0.6221254982458978  0.5034858648814162  0.22225458225626651  1.0000
  H   H31       1.0  0.40753744217553195  0.21512986860151462  0.05400375861696527  1.0000
  H   H32       1.0  0.3993482831782748  0.33095030877316933  0.1745682562563453  1.0000
  Zn  Zn1       1.0  0.7502025432969995  0.40916101864971977  0.5770050378100555  1.0000
  Zn  Zn2       1.0  0.9009717910712101  0.40664384936323894  0.5789202147715187  1.0000
  C   C43       1.0  0.8256394294998401  0.40266216516433584  0.8151729986034433  1.0000
  C   C44       1.0  0.8255365510118078  0.413144313933229  0.34075240239374804  1.0000
  C   C45       1.0  0.8255454908637175  0.6450946541361329  0.5727913930901406  1.0000
  C   C46       1.0  0.8256304384808151  0.17071026550931045  0.5831340764704265  1.0000
  O   O1        1.0  0.8827613804889978  0.4139064274246666  0.38986815822867477  1.0000
  O   O2        1.0  0.8828449706087883  0.39998859881768944  0.7675104438820035  1.0000
  O   O3        1.0  0.8827683429536349  0.5957559121360342  0.5717855727647947  1.0000
  O   O4        1.0  0.8828379566748674  0.21813912428288496  0.5855929313116911  1.0000
  O   O5        1.0  0.7683363262431956  0.5976657445904761  0.5703323206094959  1.0000
  O   O6        1.0  0.7684129536153179  0.4018999915846542  0.7660571225029421  1.0000
  O   O7        1.0  0.7683293632223182  0.41581777537567405  0.3884132753499734  1.0000
  O   O8        1.0  0.768405939427325  0.2200504629177309  0.5841381458067954  1.0000
