data_image0
_chemical_formula_structural       NC11NC3H8C6NCOC6H11C7OC3FC3H8Zn2C4O8
_chemical_formula_sum              "N3 C44 H27 O10 F1 Zn2"
_cell_length_a       17.807433833752565
_cell_length_b       10.29965916528486
_cell_length_c       10.29938172300155
_cell_angle_alpha    85.59399439143573
_cell_angle_beta     88.50784037207825
_cell_angle_gamma    90.70223866869796

_space_group_name_H-M_alt    "P 1"
_space_group_IT_number       1

loop_
  _space_group_symop_operation_xyz
  'x, y, z'

loop_
  _atom_site_type_symbol
  _atom_site_label
  _atom_site_symmetry_multiplicity
  _atom_site_fract_x
  _atom_site_fract_y
  _atom_site_fract_z
  _atom_site_occupancy
  N   N1        1.0  0.7079032509893836  0.43806867974827624  0.5351226342925901  1.0000
  C   C1        1.0  0.6570668126762519  0.40335987218500624  0.6016736143855546  1.0000
  C   C2        1.0  0.5938211596826579  0.3601849757928637  0.6844545402775357  1.0000
  C   C3        1.0  0.605517087739384  0.2966677874027832  0.8071521512432924  1.0000
  C   C4        1.0  0.5441794946380636  0.25517204150329875  0.8876496960031244  1.0000
  C   C5        1.0  0.47099146620021154  0.2768803875141861  0.8460903227975813  1.0000
  C   C6        1.0  0.45831884727581285  0.3405520051604083  0.7229325657337354  1.0000
  C   C7        1.0  0.3805632875229022  0.36358972434912995  0.6785929779588571  1.0000
  C   C8        1.0  0.3617980912033451  0.34668428236537974  0.5490074542778236  1.0000
  C   C9        1.0  0.2885801207732421  0.36835388975529915  0.5074039971306208  1.0000
  C   C10       1.0  0.2331844630096439  0.4072472478626387  0.5945658943685688  1.0000
  C   C11       1.0  0.15783010925942456  0.42957495462107476  0.5516013588510895  1.0000
  N   N2        1.0  0.09725058148432501  0.44752477207247093  0.517060999234499  1.0000
  C   C12       1.0  0.25125821971463  0.42436312505281104  0.72362035325558  1.0000
  C   C13       1.0  0.3244233803600016  0.40265865451673805  0.7654792278497524  1.0000
  C   C14       1.0  0.5205137487708478  0.38204319047164226  0.6424514352892499  1.0000
  H   H1        1.0  0.661974369728659  0.2792623059786945  0.840511986541489  1.0000
  H   H2        1.0  0.5533534312144504  0.2057453077028928  0.9823696367068542  1.0000
  H   H3        1.0  0.4243357745437825  0.24234149506564817  0.9095180812633991  1.0000
  H   H4        1.0  0.4034822540491402  0.3150253247229229  0.4802808695335026  1.0000
  H   H5        1.0  0.2751526810819576  0.3544475529800309  0.4073652148608448  1.0000
  H   H6        1.0  0.2088571458846018  0.454798948818719  0.7918317753417483  1.0000
  H   H7        1.0  0.3373226857517216  0.4181103201176753  0.8653357557314738  1.0000
  H   H8        1.0  0.512038487451108  0.43283230836948583  0.5479662504671947  1.0000
  C   C15       1.0  0.9025144429377584  0.06143448974745301  0.5259792147318085  1.0000
  C   C16       1.0  0.9030478516525399  0.07069301557866405  0.3891409153377487  1.0000
  C   C17       1.0  0.9044243715176998  0.9585480884305438  0.32024269050025267  1.0000
  C   C18       1.0  0.9031893517291515  0.8355062360219201  0.38943073021976926  1.0000
  C   C19       1.0  0.9026465525314599  0.8241491097075359  0.5262152425979518  1.0000
  C   C20       1.0  0.9025765231679951  0.9377273923809012  0.593705154636269  1.0000
  N   N3        1.0  0.9038156119021086  0.9715698854212061  0.18020729559152304  1.0000
  C   C21       1.0  0.9390446714330395  0.8812760197893891  0.09884834279140152  1.0000
  O   O1        1.0  0.9908632535596785  0.8097280277296224  0.14342170035969826  1.0000
  C   C22       1.0  0.9172309018692747  0.8745138753357569  0.9614965202220547  1.0000
  C   C23       1.0  0.8477699568831648  0.9226722047463032  0.9183738512231665  1.0000
  C   C24       1.0  0.8276603815300049  0.9151367352655835  0.7887864396521359  1.0000
  C   C25       1.0  0.876312175484836  0.859209302081164  0.7010744196590935  1.0000
  C   C26       1.0  0.9451120071867248  0.810247039764628  0.7428515630503001  1.0000
  C   C27       1.0  0.9655084035032786  0.8174331157823477  0.8723211964057936  1.0000
  H   H9        1.0  0.9007911990103035  0.2512163769717053  0.7841333760542001  1.0000
  H   H10       1.0  0.9029703849322365  0.16528654360654071  0.33532249879039133  1.0000
  H   H11       1.0  0.9013324358280576  0.7486569069040321  0.33671250374931816  1.0000
  H   H12       1.0  0.9021753708441265  0.9297249697450429  0.6991915757386384  1.0000
  H   H13       1.0  0.9014388420201447  0.49231915964415046  0.5787317930407578  1.0000
  H   H14       1.0  0.8823874487076317  0.0571705440945498  0.13526176027578418  1.0000
  H   H15       1.0  0.8083909874869755  0.9644292580959292  0.9846817896993904  1.0000
  H   H16       1.0  0.774125255604919  0.952260871798701  0.7564848160682129  1.0000
  H   H17       1.0  0.8605960739606323  0.8534442660303833  0.6008478583542534  1.0000
  H   H18       1.0  0.9827137309817654  0.7666505934497251  0.6748623837975027  1.0000
  H   H19       1.0  0.019232029694673743  0.7791268654384197  0.9023954085018797  1.0000
  C   C28       1.0  0.902643731491476  0.44269221513418094  0.14472660761040346  1.0000
  C   C29       1.0  0.9263956444971685  0.3128176964484515  0.15244458573539554  1.0000
  C   C30       1.0  0.9391917096781874  0.24778862555699874  0.039090828208511175  1.0000
  C   C31       1.0  0.9263238406167661  0.31310907972856206  0.9171819597480177  1.0000
  C   C32       1.0  0.9025172498924283  0.4428913841758546  0.9074678948205617  1.0000
  C   C33       1.0  0.8910043357683649  0.5070405092430905  0.021814527465620955  1.0000
  C   C34       1.0  0.9635116339731268  0.11021410503116358  0.04716405950531111  1.0000
  O   O2        1.0  0.9403597426497419  0.03640944125332757  0.9640335537681  1.0000
  C   C35       1.0  0.014101347284985811  0.05637097505963151  0.1494449494783523  1.0000
  C   C36       1.0  0.008026386151903427  0.9242657018782799  0.19495801345159  1.0000
  C   C37       1.0  0.056057138609409064  0.8722263551885691  0.2902694596863564  1.0000
  F   F1        1.0  0.049382411523559266  0.7450000743157404  0.33420755128272384  1.0000
  C   C38       1.0  0.1109396088308987  0.9511810342943537  0.34021605273723243  1.0000
  C   C39       1.0  0.11809625809761591  0.08210715899840726  0.2945873684717186  1.0000
  C   C40       1.0  0.07021455376229269  0.13456188622464005  0.19934011455344813  1.0000
  H   H20       1.0  0.8567172647844546  0.687141171779547  0.3375804787551884  1.0000
  H   H21       1.0  0.9341701094836055  0.26161725976396033  0.24687320373657773  1.0000
  H   H22       1.0  0.9356267975550373  0.2627867318692829  0.8297085422719626  1.0000
  H   H23       1.0  0.8726930280855696  0.6071637757061559  0.015060502341213367  1.0000
  H   H24       1.0  0.9656938521533175  0.8617227591815013  0.15752932556387056  1.0000
  H   H25       1.0  0.1481448305330768  0.9108771843082132  0.4138937152485782  1.0000
  H   H26       1.0  0.16101799012427298  0.14291671531812278  0.3326270927201427  1.0000
  H   H27       1.0  0.07761837613306577  0.2356982274225672  0.16376798642223345  1.0000
  Zn  Zn1       1.0  0.8202604781610073  0.44079403110621146  0.5299179200448358  1.0000
  Zn  Zn2       1.0  0.9848933359574961  0.44478880407106813  0.5222762962569147  1.0000
  C   C41       1.0  0.9025386054300604  0.43768013569990444  0.763291917355392  1.0000
  C   C42       1.0  0.9026170067368436  0.4479043817247048  0.2889023434742124  1.0000
  C   C43       1.0  0.9026185817207687  0.6799783940506509  0.5209956309748531  1.0000
  C   C44       1.0  0.9025369739866893  0.2056045617533111  0.5311987012183599  1.0000
  O   O3        1.0  0.9650853482260398  0.4511639623240175  0.3343890793354154  1.0000
  O   O4        1.0  0.9650227935556462  0.43745151554496897  0.7120049917033704  1.0000
  O   O5        1.0  0.9650865329739058  0.6331104033592354  0.5163490656759366  1.0000
  O   O6        1.0  0.965021552647491  0.25550508241123593  0.5300449105981866  1.0000
  O   O7        1.0  0.8401322052898987  0.6300777514042364  0.5221493083044442  1.0000
  O   O8        1.0  0.8400684661499721  0.43442042384880897  0.7178051655691502  1.0000
  O   O9        1.0  0.8401310211213603  0.4481328249660961  0.34018769177715225  1.0000
  O   O10       1.0  0.8400672255219874  0.25247393579002164  0.5358436204054662  1.0000
