data_image0
_chemical_formula_structural       NC10NC3NH7C7OC4NC3H8C7OC6H10Zn2C4O8
_chemical_formula_sum              "N4 C44 H25 O10 Zn2"
_cell_length_a       19.210446455230148
_cell_length_b       10.299371701877257
_cell_length_c       10.299382801718286
_cell_angle_alpha    85.59153606020502
_cell_angle_beta     89.97114799571779
_cell_angle_gamma    89.95709994445667

_space_group_name_H-M_alt    "P 1"
_space_group_IT_number       1

loop_
  _space_group_symop_operation_xyz
  'x, y, z'

loop_
  _atom_site_type_symbol
  _atom_site_label
  _atom_site_symmetry_multiplicity
  _atom_site_fract_x
  _atom_site_fract_y
  _atom_site_fract_z
  _atom_site_occupancy
  N   N1        1.0  0.6558612175566706  0.4199279598302592  0.5678828522487602  1.0000
  C   C1        1.0  0.5956326575408204  0.42213548687824165  0.5681148722735457  1.0000
  C   C2        1.0  0.5208282047762061  0.42487241614014093  0.5684023169546868  1.0000
  C   C3        1.0  0.48521621652383357  0.541104023197643  0.5835599969225497  1.0000
  C   C4        1.0  0.4125507470349659  0.5412555497204401  0.5835074595558021  1.0000
  C   C5        1.0  0.3756614441725483  0.4255813887383754  0.5684890800689634  1.0000
  C   C6        1.0  0.29833932568704  0.42422490440563915  0.5683379523933352  1.0000
  C   C7        1.0  0.2605963930838612  0.5277836141879075  0.5050172573669534  1.0000
  C   C8        1.0  0.18781804132278496  0.5263813822086425  0.5049076292570631  1.0000
  C   C9        1.0  0.1517812219347899  0.4216779385455018  0.5680678012442321  1.0000
  C   C10       1.0  0.0768517110261656  0.42037584988012  0.5679304583175925  1.0000
  N   N2        1.0  0.0166138660555988  0.41932892639075064  0.5678200694629092  1.0000
  C   C11       1.0  0.1888005023309472  0.3182449155619551  0.6313635375388673  1.0000
  C   C12       1.0  0.2615806921944929  0.3193728912691385  0.6315233029958753  1.0000
  C   C13       1.0  0.413883266022132  0.3111700632994481  0.5536202832224278  1.0000
  N   N3        1.0  0.4846532104185386  0.31361503555757325  0.5537868116777483  1.0000
  H   H1        1.0  0.5133161045584973  0.6305385302661577  0.5956437303755255  1.0000
  H   H2        1.0  0.38528060007722004  0.6312721456432961  0.5969861425403009  1.0000
  H   H3        1.0  0.2873324289469104  0.6090275249342403  0.4540588716330869  1.0000
  H   H4        1.0  0.1596801666874962  0.6067978183300307  0.4552793063185825  1.0000
  H   H5        1.0  0.1614250522601869  0.23686507800599818  0.6808919954353536  1.0000
  H   H6        1.0  0.2890734678626452  0.23907587736990843  0.6825893953954808  1.0000
  H   H7        1.0  0.3876192186118961  0.22029054956448468  0.5400950123802174  1.0000
  C   C14       1.0  0.8362044801251655  0.03825805687124406  0.5677244755431625  1.0000
  C   C15       1.0  0.8396115904819506  0.04756813982504603  0.4310615613678227  1.0000
  C   C16       1.0  0.8405396494076186  0.9350962762045584  0.36207031594600436  1.0000
  C   C17       1.0  0.8396201433084814  0.8122998682834337  0.43137894977875957  1.0000
  C   C18       1.0  0.8362772517200218  0.8009888428264685  0.5679896699393475  1.0000
  C   C19       1.0  0.8344056207806103  0.9145696637341446  0.635356205883223  1.0000
  C   C20       1.0  0.8448683682242316  0.9447821207847851  0.21782229051848348  1.0000
  O   O1        1.0  0.8783812694537042  0.8589695419968099  0.16287162414094095  1.0000
  C   C21       1.0  0.8111670697752937  0.05173628192131807  0.13591751254901996  1.0000
  C   C22       1.0  0.8410016125391643  0.09630895458868681  0.015944307329182953  1.0000
  C   C23       1.0  0.8091356131732231  0.19625058278109653  0.9371605549103932  1.0000
  C   C24       1.0  0.8403209829822362  0.24200466131621323  0.8150010066168633  1.0000
  N   N4        1.0  0.8653926295517085  0.27878131657499483  0.7168024440327212  1.0000
  C   C25       1.0  0.7469155594657301  0.2515397167574298  0.9773424680239238  1.0000
  C   C26       1.0  0.716493716202066  0.20675707226697645  0.09557625836188399  1.0000
  C   C27       1.0  0.7481598540835749  0.10711324826779746  0.17434864816488815  1.0000
  H   H8        1.0  0.84232719700203  0.14247763034040717  0.37817545972210814  1.0000
  H   H9        1.0  0.840851494838328  0.7254505436985818  0.3783674724890225  1.0000
  H   H10       1.0  0.8317793684563312  0.9065883778149584  0.7407135716967379  1.0000
  H   H11       1.0  0.8355789433446927  0.46918228438376824  0.6205140732392083  1.0000
  H   H12       1.0  0.8892810814092631  0.054131830882015335  0.9843596093014011  1.0000
  H   H13       1.0  0.7218327690803589  0.32878650873075627  0.9171084776553955  1.0000
  H   H14       1.0  0.6680955991287226  0.24895036608228094  0.12600799255874162  1.0000
  H   H15       1.0  0.7229949481239222  0.07246173853924431  0.26450766420756855  1.0000
  C   C28       1.0  0.8363102966811169  0.4195501202628571  0.18648724939688988  1.0000
  C   C29       1.0  0.9094401046477207  0.4202921618568034  0.18517116993508065  1.0000
  C   C30       1.0  0.9463245640170024  0.4191783450448478  0.06744874382302823  1.0000
  C   C31       1.0  0.909270480431174  0.42032048032768315  0.9499256405114932  1.0000
  C   C32       1.0  0.8361714058056178  0.419696806852142  0.9492268586470406  1.0000
  C   C33       1.0  0.8001153072075443  0.4189705218930162  0.06807329481728397  1.0000
  C   C34       1.0  0.023540267533499703  0.4213458012262267  0.065807614639396  1.0000
  O   O2        1.0  0.05421653775063318  0.48200392150483995  0.9712965324515405  1.0000
  C   C35       1.0  0.06595544840962098  0.35469198062175583  0.17128324523347652  1.0000
  C   C36       1.0  0.13138803405683697  0.40504327663896555  0.2023908243264485  1.0000
  C   C37       1.0  0.17210585333592854  0.3420416004319442  0.3006162644619821  1.0000
  C   C38       1.0  0.14824346373600328  0.2277773068572113  0.36794460784496497  1.0000
  C   C39       1.0  0.08373378949120336  0.17597751117351706  0.33681334606457997  1.0000
  C   C40       1.0  0.042817636150989775  0.23860080321322785  0.23868986945649873  1.0000
  H   H16       1.0  0.6983035939086679  0.42016147655001296  0.39613613133910053  1.0000
  H   H17       1.0  0.9377986363551616  0.4231955579273583  0.27576610593837914  1.0000
  H   H18       1.0  0.9376358928107359  0.4204447320923481  0.8589692819458895  1.0000
  H   H19       1.0  0.7437377353189416  0.41839926244406467  0.06828365790012336  1.0000
  H   H20       1.0  0.8080900708669753  0.42056219987707355  0.6214169909487604  1.0000
  H   H21       1.0  0.15072220277002216  0.49368448127650905  0.15148281713259418  1.0000
  H   H22       1.0  0.22221649387354447  0.3818422606115186  0.32449410635799936  1.0000
  H   H23       1.0  0.17986055507970547  0.17909740045941147  0.4438655915027517  1.0000
  H   H24       1.0  0.06553263162396285  0.08687851520428191  0.38834975957165274  1.0000
  H   H25       1.0  0.9935425283802211  0.19551657696664804  0.21462451964395757  1.0000
  Zn  Zn1       1.0  0.7599666366919936  0.41975162909464947  0.5678722323736272  1.0000
  Zn  Zn2       1.0  0.912508428034292  0.41949467658310224  0.5678413214611389  1.0000
  C   C41       1.0  0.8361956336611028  0.4144953774897524  0.8050509753938833  1.0000
  C   C42       1.0  0.8362810969499298  0.424752564032538  0.33066270613983584  1.0000
  C   C43       1.0  0.8362608537926123  0.6568155151015702  0.5627643627560122  1.0000
  C   C44       1.0  0.8362158246050997  0.18243086621308247  0.5729493874845364  1.0000
  O   O3        1.0  0.8941601115490252  0.42639537378414527  0.37903757398166854  1.0000
  O   O4        1.0  0.894092309088612  0.4126565669291619  0.756652272697127  1.0000
  O   O5        1.0  0.894144194554864  0.6083331441813067  0.5610041194017152  1.0000
  O   O6        1.0  0.8941081740492073  0.23071880589121377  0.5746856299159575  1.0000
  O   O7        1.0  0.7783668386220527  0.6085274998756356  0.561027923922526  1.0000
  O   O8        1.0  0.7783149533140956  0.41285248292022647  0.7566760085148261  1.0000
  O   O9        1.0  0.778382756100756  0.4265912442187241  0.3790597483792082  1.0000
  O   O10       1.0  0.7783308185794786  0.23091466705567762  0.5747079016783372  1.0000
