data_image0
_chemical_formula_structural       NC8NC6H8C7F3H5C8NH10Zn2C4O8
_chemical_formula_sum              "N3 C33 H23 F3 Zn2 O8"
_cell_length_a       17.457602349358154
_cell_length_b       9.272718291674593
_cell_length_c       9.275652972338536
_cell_angle_alpha    86.37424905988952
_cell_angle_beta     93.30040864466163
_cell_angle_gamma    91.24279848523653

_space_group_name_H-M_alt    "P 1"
_space_group_IT_number       1

loop_
  _space_group_symop_operation_xyz
  'x, y, z'

loop_
  _atom_site_type_symbol
  _atom_site_label
  _atom_site_symmetry_multiplicity
  _atom_site_fract_x
  _atom_site_fract_y
  _atom_site_fract_z
  _atom_site_occupancy
  N   N1        1.0  0.7099949482030194  0.6022288795761019  0.486541564542829  1.0000
  C   C1        1.0  0.649069465267819  0.5511713033588574  0.4743885586072494  1.0000
  C   C2        1.0  0.5732755990820764  0.4876620938868504  0.4592808595259563  1.0000
  C   C3        1.0  0.5149056674150116  0.5328098795814707  0.5427623621440565  1.0000
  C   C4        1.0  0.44054340775226675  0.47165660521483505  0.5283537762492778  1.0000
  C   C5        1.0  0.378592505148618  0.5193278269365842  0.6167628341779569  1.0000
  C   C6        1.0  0.3037173606622435  0.5394048404975215  0.5549939095915923  1.0000
  C   C7        1.0  0.24534870635724385  0.584349287415832  0.6385938110122346  1.0000
  C   C8        1.0  0.16902291224145  0.605081995537881  0.5743698136052844  1.0000
  N   N2        1.0  0.10766991869253872  0.621744012540099  0.5227338365595795  1.0000
  C   C9        1.0  0.2613642397450096  0.6094904650603669  0.784529199067054  1.0000
  C   C10       1.0  0.33545471380471703  0.589848167068934  0.8467315870443783  1.0000
  C   C11       1.0  0.3938130173512264  0.5451070523249442  0.7636413440511334  1.0000
  C   C12       1.0  0.4258362939935732  0.3645927405058207  0.4288672697243352  1.0000
  C   C13       1.0  0.4841950759504203  0.3197573238711461  0.3458321253058463  1.0000
  C   C14       1.0  0.5577745288631899  0.3810395064449049  0.36085223466204885  1.0000
  H   H1        1.0  0.5272192817805128  0.6167810701258678  0.6173439681410515  1.0000
  H   H2        1.0  0.29098339507333904  0.5220140040613499  0.44159336987941566  1.0000
  H   H3        1.0  0.2166308297732648  0.6442166295737353  0.8501027433403932  1.0000
  H   H4        1.0  0.3476665340464365  0.6089651780181999  0.9597300969841386  1.0000
  H   H5        1.0  0.45056901660990567  0.5288158146983211  0.8147154184395933  1.0000
  H   H6        1.0  0.3695013643085874  0.31418942292332064  0.4166788614378758  1.0000
  H   H7        1.0  0.4723850835823383  0.23701631872824946  0.2699288805292513  1.0000
  H   H8        1.0  0.6025140391844428  0.3453518524772982  0.2958392785235835  1.0000
  C   C15       1.0  0.9104944252263584  0.18866402717820593  0.5016048686164303  1.0000
  C   C16       1.0  0.8633208808884977  0.26699599158891085  0.39769835125510034  1.0000
  C   C17       1.0  0.8107634555116829  0.19629544763125306  0.30467504487779334  1.0000
  C   C18       1.0  0.8074013934684837  0.04489810578356269  0.3127960655313058  1.0000
  C   C19       1.0  0.854619792591293  0.9655884324266277  0.41358760250055426  1.0000
  C   C20       1.0  0.9071778550268866  0.03529817761560116  0.5076836349828859  1.0000
  C   C21       1.0  0.7621574061702407  0.2820931599528881  0.19146809836445922  1.0000
  F   F1        1.0  0.7426502482379931  0.41290520964069044  0.242078191684306  1.0000
  F   F2        1.0  0.6950545405918546  0.20719853333761384  0.1552462748290524  1.0000
  F   F3        1.0  0.8030453960214428  0.3080380072305886  0.06892791743245086  1.0000
  H   H9        1.0  0.0028524635790467853  0.27396838280233515  0.8210852582122872  1.0000
  H   H10       1.0  0.8663568759837541  0.3840689725706887  0.3912659205694202  1.0000
  H   H11       1.0  0.7687688951212304  0.9874464602625163  0.2399659016430646  1.0000
  H   H12       1.0  0.8514957400792663  0.8486789969483143  0.41524262151097346  1.0000
  H   H13       1.0  0.07260072380817206  0.9286616514717781  0.6962249851979765  1.0000
  C   C22       1.0  0.9071388809540627  0.6090876884754043  0.081197851015272  1.0000
  C   C23       1.0  0.8569974120625471  0.700941016764012  0.14349226781901492  1.0000
  C   C24       1.0  0.8128818509441358  0.8015035660236516  0.05755132271619212  1.0000
  C   C25       1.0  0.8178766800982096  0.8087731383233829  0.9072734531740204  1.0000
  C   C26       1.0  0.8663283588691701  0.7169010683017618  0.8434176553098482  1.0000
  C   C27       1.0  0.9105334357871576  0.614874534723872  0.9280906006916756  1.0000
  C   C28       1.0  0.7586383200192761  0.8974826772336746  0.12590161439298186  1.0000
  C   C29       1.0  0.6800153810388412  0.8231769999819456  0.13900270564447004  1.0000
  N   N3        1.0  0.627589188019957  0.9180421649684852  0.20317349281770047  1.0000
  H   H14       1.0  0.9642226862829105  0.397670286741709  0.38138614726226994  1.0000
  H   H15       1.0  0.8533630814017332  0.6967512173887164  0.25995881312438707  1.0000
  H   H16       1.0  0.7835469105007428  0.8847502507490815  0.8391510876415738  1.0000
  H   H17       1.0  0.8676895054141033  0.7231602213367139  0.7265683182573763  1.0000
  H   H18       1.0  0.7825701607182005  0.9239916920342809  0.23498484076500906  1.0000
  H   H19       1.0  0.7520874028454972  0.00125668027877968  0.05978027268502517  1.0000
  H   H20       1.0  0.6561193894470271  0.7978282143467639  0.02951431652724135  1.0000
  H   H21       1.0  0.6858366087648365  0.7201967093093014  0.2069470644938347  1.0000
  H   H22       1.0  0.5735803046781792  0.8669735320818833  0.20229615970625692  1.0000
  H   H23       1.0  0.6455295798025531  0.9261391888907533  0.3119805478309612  1.0000
  Zn  Zn1       1.0  0.8247554029817933  0.6078567164614717  0.4969941704894516  1.0000
  Zn  Zn2       1.0  0.9929095432831831  0.6161044371556135  0.5122929513958603  1.0000
  C   C30       1.0  0.9099125569105846  0.6080377780475994  0.7679683534022199  1.0000
  C   C31       1.0  0.9077542190344765  0.6159252854825777  0.24131909013479855  1.0000
  C   C32       1.0  0.9077777864538955  0.8752268497270365  0.5007880603063739  1.0000
  C   C33       1.0  0.9098889392046927  0.34873447956543413  0.5084994424529939  1.0000
  O   O1        1.0  0.9717743766534074  0.6213437235010915  0.3008630031782831  1.0000
  O   O2        1.0  0.9735175035547801  0.6088780788603284  0.7200354381754213  1.0000
  O   O3        1.0  0.9717927951848376  0.8246366013602613  0.5042853936513723  1.0000
  O   O4        1.0  0.9734990271699744  0.40558520776021845  0.5166129344376564  1.0000
  O   O5        1.0  0.8441658617122102  0.8183759430438423  0.4926741822193586  1.0000
  O   O6        1.0  0.8458905629858338  0.6026191519685904  0.7084241622927627  1.0000
  O   O7        1.0  0.8441474293833366  0.6150847345311341  0.2892499932653452  1.0000
  O   O8        1.0  0.8458720803704872  0.3993262092181764  0.5050000325610984  1.0000
