data_image0
_chemical_formula_structural       NC9NC5H8C6BrH5C7F3H5Zn2C4O8
_chemical_formula_sum              "N2 C31 H18 Br1 F3 Zn2 O8"
_cell_length_a       17.807436237873137
_cell_length_b       10.302969083221269
_cell_length_c       9.272291681409872
_cell_angle_alpha    86.06047183095716
_cell_angle_beta     89.81650948764641
_cell_angle_gamma    88.39001038669201

_space_group_name_H-M_alt    "P 1"
_space_group_IT_number       1

loop_
  _space_group_symop_operation_xyz
  'x, y, z'

loop_
  _atom_site_type_symbol
  _atom_site_label
  _atom_site_symmetry_multiplicity
  _atom_site_fract_x
  _atom_site_fract_y
  _atom_site_fract_z
  _atom_site_occupancy
  N   N1        1.0  0.7014295720536327  0.374996327634376  0.3983537324553008  1.0000
  C   C1        1.0  0.6407963486086087  0.3397237710966916  0.38611670571387235  1.0000
  C   C2        1.0  0.5653752827369701  0.2958485950353853  0.3708951731297869  1.0000
  C   C3        1.0  0.5468485907863113  0.2235601781469971  0.25433757015611985  1.0000
  C   C4        1.0  0.47361828573158377  0.18084859590796445  0.23946672200611818  1.0000
  C   C5        1.0  0.41786581966256603  0.21004774472607268  0.3411174539785342  1.0000
  C   C6        1.0  0.3400412231277966  0.16477191353151954  0.32540469956357687  1.0000
  C   C7        1.0  0.2779723863072882  0.24672331133612357  0.3541980170509968  1.0000
  C   C8        1.0  0.20459983314252117  0.20380887274362022  0.3393423554358055  1.0000
  C   C9        1.0  0.1414824146914636  0.2884538673451753  0.3685396215627783  1.0000
  N   N2        1.0  0.09074899553905581  0.35650259625712266  0.39201341709479176  1.0000
  C   C10       1.0  0.1927124669028647  0.07868492257855286  0.2956652369353996  1.0000
  C   C11       1.0  0.2539238991240543  0.9967196053027229  0.26686260652453986  1.0000
  C   C12       1.0  0.327176180740273  0.039237900420001866  0.28149344184339475  1.0000
  C   C13       1.0  0.43708482482594396  0.28283224095099113  0.4579184112820911  1.0000
  C   C14       1.0  0.5103673560023634  0.3253521612275702  0.47261648045242244  1.0000
  H   H1        1.0  0.5889462304271775  0.2004700730091249  0.17473338193130394  1.0000
  H   H2        1.0  0.4603619966186623  0.1264757674871011  0.1474215024013541  1.0000
  H   H3        1.0  0.2865895432339783  0.34440346097654295  0.3862527700503581  1.0000
  H   H4        1.0  0.13620352726861448  0.044569342512435606  0.28390446245944134  1.0000
  H   H5        1.0  0.24460342107158822  0.8998490468776723  0.23347534665730163  1.0000
  H   H6        1.0  0.37373806131842513  0.9733513371114795  0.26034889936035865  1.0000
  H   H7        1.0  0.39570943195156066  0.30539451810811213  0.5389595470923692  1.0000
  H   H8        1.0  0.524147676359273  0.3809362940586491  0.5635054507884905  1.0000
  C   C15       1.0  0.8960928883195222  0.9845018436953502  0.39518981620232196  1.0000
  C   C16       1.0  0.974067365707866  0.9780753090718527  0.41821670018936996  1.0000
  C   C17       1.0  0.012746902709342315  0.8579495499050037  0.42963908709503884  1.0000
  C   C18       1.0  0.9740674236695577  0.7429929445671226  0.41821642568833517  1.0000
  C   C19       1.0  0.8960928995124718  0.7469868597688785  0.395189720440813  1.0000
  C   C20       1.0  0.8574821979368832  0.8683243257873919  0.3837875391972042  1.0000
  Br  Br1       1.0  0.11880561579886993  0.8508627148251952  0.4609600036279098  1.0000
  H   H9        1.0  0.8667440459142388  0.31422239063631463  0.3865220664896245  1.0000
  H   H10       1.0  0.005107531325716508  0.0660005217396602  0.42738342595724776  1.0000
  H   H11       1.0  0.00510761729681808  0.6509195784069914  0.42738277513999057  1.0000
  H   H12       1.0  0.7973452829114742  0.8723426232231388  0.3660285133744745  1.0000
  H   H13       1.0  0.8667438387321301  0.42118842502625203  0.386524200225542  1.0000
  C   C21       1.0  0.8945116918079472  0.3624869139504343  0.9718548148444639  1.0000
  C   C22       1.0  0.9450344743090072  0.2783796737369395  0.051251410094308  1.0000
  C   C23       1.0  0.9996393182987271  0.2057119146073163  0.9815651305596447  1.0000
  C   C24       1.0  0.005906963871265878  0.21673287491574778  0.8305707176171455  1.0000
  C   C25       1.0  0.9538873470206868  0.29661013632582134  0.7500283021109571  1.0000
  C   C26       1.0  0.8976740852579951  0.36900184177344686  0.818524693520239  1.0000
  C   C27       1.0  0.06358018207904714  0.13536634855149243  0.7550461576092466  1.0000
  F   F1        1.0  0.1264807530664389  0.11045725426973461  0.8409409355078342  1.0000
  F   F2        1.0  0.08606480827237227  0.19926877275856403  0.6266075488782699  1.0000
  F   F3        1.0  0.03262970122685971  0.018530430057679848  0.7255911584659591  1.0000
  H   H14       1.0  0.7887243397552274  0.6298587199015595  0.05366822339956444  1.0000
  H   H15       1.0  0.943300649253352  0.2707109885336467  0.1683263346955941  1.0000
  H   H16       1.0  0.037482244779052376  0.141585852963521  0.0461621875803042  1.0000
  H   H17       1.0  0.9560291390728296  0.2999713865898461  0.6330056283804111  1.0000
  H   H18       1.0  0.7274313592891043  0.5014590475524547  0.7079548481796135  1.0000
  Zn  Zn1       1.0  0.8137787778567822  0.3696560362156762  0.3965323916850405  1.0000
  Zn  Zn2       1.0  0.9783998158051037  0.3618323960657095  0.39384660933840393  1.0000
  C   C28       1.0  0.8970746577147041  0.3625984000745266  0.6584860157098613  1.0000
  C   C29       1.0  0.8951057341323151  0.36889158595963023  0.1318930974776682  1.0000
  C   C30       1.0  0.8960675746727057  0.602816954798401  0.3894451592186081  1.0000
  C   C31       1.0  0.8961127612877067  0.12867147469095852  0.40093403174325304  1.0000
  O   O1        1.0  0.9577779261345636  0.3680663577919179  0.18458416669429845  1.0000
  O   O2        1.0  0.959346022893673  0.35748468379132703  0.6037560848527608  1.0000
  O   O3        1.0  0.9585319540362255  0.5514642562672898  0.3865037034672736  1.0000
  O   O4        1.0  0.9585919384142753  0.17408679644117675  0.4018364409064308  1.0000
  O   O5        1.0  0.8335865990705011  0.557401638511388  0.38854256102595697  1.0000
  O   O6        1.0  0.8344006676374472  0.3634236252514024  0.6057948655460552  1.0000
  O   O7        1.0  0.8328325644545393  0.37400524067142404  0.18662121416871247  1.0000
  O   O8        1.0  0.8336465771348781  0.18002567086664104  0.4038735964631425  1.0000
