data_image0
_chemical_formula_structural       NC9NC5H8C12NCOCH13C15H11Zn2C4O8
_chemical_formula_sum              "N3 C47 H32 O9 Zn2"
_cell_length_a       17.807436237873137
_cell_length_b       10.299155265289647
_cell_length_c       10.299157797200023
_cell_angle_alpha    85.52785804654131
_cell_angle_beta     89.41431720980769
_cell_angle_gamma    88.36808077728017

_space_group_name_H-M_alt    "P 1"
_space_group_IT_number       1

loop_
  _space_group_symop_operation_xyz
  'x, y, z'

loop_
  _atom_site_type_symbol
  _atom_site_label
  _atom_site_symmetry_multiplicity
  _atom_site_fract_x
  _atom_site_fract_y
  _atom_site_fract_z
  _atom_site_occupancy
  N   N1        1.0  0.7067768024217649  0.38829853428610983  0.5566384779382321  1.0000
  C   C1        1.0  0.6461945125775314  0.35310912059174937  0.5456242187043585  1.0000
  C   C2        1.0  0.5708368025629831  0.3093373652219636  0.531923676117023  1.0000
  C   C3        1.0  0.5527371959283816  0.23794738501348475  0.42693558220793304  1.0000
  C   C4        1.0  0.479568753457973  0.19533690248947042  0.4135506376016005  1.0000
  C   C5        1.0  0.4234512748894388  0.22373884848605452  0.5051214439120338  1.0000
  C   C6        1.0  0.3456920754403212  0.1785697816895832  0.4909787596597308  1.0000
  C   C7        1.0  0.283503623360337  0.2603251255711098  0.5168952519706288  1.0000
  C   C8        1.0  0.2101929238721906  0.21751158389634684  0.5035240487483232  1.0000
  C   C9        1.0  0.146953872121837  0.3019583976601854  0.5298036771466549  1.0000
  N   N2        1.0  0.09612266392889672  0.36984779323517974  0.5509317735597701  1.0000
  C   C10       1.0  0.1984871826640881  0.09268470426957928  0.4642110775256224  1.0000
  C   C11       1.0  0.2598182660618101  0.010915509412467548  0.43828619908088395  1.0000
  C   C12       1.0  0.3330095743213337  0.05333453690931633  0.4514549675655494  1.0000
  C   C13       1.0  0.4422422270536575  0.295623171640949  0.6103286355566899  1.0000
  C   C14       1.0  0.5154635473411688  0.3380432898669163  0.6235579760141865  1.0000
  H   H1        1.0  0.5951207315242353  0.21548149076767625  0.35522519816574316  1.0000
  H   H2        1.0  0.4666491350773607  0.14167466289081254  0.3306410317735535  1.0000
  H   H3        1.0  0.2919861968600062  0.3577896177230491  0.545745429391145  1.0000
  H   H4        1.0  0.1420272418612902  0.058648944054778815  0.4536255450235738  1.0000
  H   H5        1.0  0.2506368937389787  0.914271540345  0.4082352995644236  1.0000
  H   H6        1.0  0.3796605511981858  0.9875896426711869  0.4324247120356295  1.0000
  H   H7        1.0  0.4005759854583124  0.317549588640627  0.68333375197777  1.0000
  H   H8        1.0  0.5289110090532515  0.3929265252354932  0.7054255362470649  1.0000
  C   C15       1.0  0.9015372577803811  0.9976715095312128  0.5539025769705919  1.0000
  C   C16       1.0  0.8886731946746464  0.008031512571720075  0.4191584266013755  1.0000
  C   C17       1.0  0.882078056935203  0.8961500623301271  0.3507236402640707  1.0000
  C   C18       1.0  0.8884934929389999  0.7727803736198441  0.41885325854575334  1.0000
  C   C19       1.0  0.9013694140518396  0.7604645444128658  0.5536788302205969  1.0000
  C   C20       1.0  0.907815369827048  0.8734312576207958  0.6203733978600292  1.0000
  C   C21       1.0  0.8684703588924017  0.9080833199640759  0.208180585849858  1.0000
  C   C22       1.0  0.9065518813311498  0.0004199304142498154  0.12620029263463417  1.0000
  C   C23       1.0  0.8937523225636821  0.011518741880541583  0.9920576893194166  1.0000
  C   C24       1.0  0.843082409906718  0.929598393860723  0.9370466953819725  1.0000
  C   C25       1.0  0.8040832023065542  0.8391215825693074  0.018972275906738334  1.0000
  C   C26       1.0  0.8169101149060155  0.8277654693272832  0.15307714075093368  1.0000
  N   N3        1.0  0.8278644582219254  0.9406118241618104  0.7997010301015526  1.0000
  C   C27       1.0  0.8826973164951167  0.9749864675322654  0.7006741452195033  1.0000
  O   O1        1.0  0.9516241143829307  0.9742440267728317  0.7275238487742568  1.0000
  C   C28       1.0  0.8586987430658984  0.002622110222935346  0.5624782907757528  1.0000
  H   H9        1.0  0.9065086446670657  0.321161693211252  0.6057249044284554  1.0000
  H   H10       1.0  0.8827174788922838  0.10337814826916669  0.367433197366596  1.0000
  H   H11       1.0  0.8844401728818381  0.6861929832366438  0.3662812891276652  1.0000
  H   H12       1.0  0.9177402195167922  0.8647253859930915  0.7243038943218921  1.0000
  H   H13       1.0  0.926121867714631  0.529914475824524  0.8080176253786313  1.0000
  H   H14       1.0  0.9466774818873274  0.06355184556128379  0.1657067214341419  1.0000
  H   H15       1.0  0.9225597077380694  0.08563142212423891  0.9320517065940155  1.0000
  H   H16       1.0  0.7638853061244776  0.776697466781406  0.9785998225417427  1.0000
  H   H17       1.0  0.7856888902856474  0.75738321635389  0.21395149704497557  1.0000
  H   H18       1.0  0.7749432383376393  0.914262707340165  0.7694015258722877  1.0000
  H   H19       1.0  0.804467299954005  0.05863941264088846  0.5588192760099892  1.0000
  H   H20       1.0  0.851736545454482  0.9093592580295171  0.5173537497264782  1.0000
  H   H21       1.0  0.9014541497139581  0.06070788446841367  0.5064532493829943  1.0000
  C   C29       1.0  0.9013661956652355  0.37917839759151123  0.17239993005399423  1.0000
  C   C30       1.0  0.8231196937202617  0.3649057134807929  0.1737272856734444  1.0000
  C   C31       1.0  0.7836072913164654  0.35755242509765806  0.05725564648049163  1.0000
  C   C32       1.0  0.8233429565297056  0.3646863859332716  0.9384567805703137  1.0000
  C   C33       1.0  0.9015404237669661  0.3789575987487084  0.9351814615532137  1.0000
  C   C34       1.0  0.9400954215655866  0.3861145074339292  0.052690049308166786  1.0000
  C   C35       1.0  0.7008832147128716  0.342468358204907  0.05970525549336014  1.0000
  C   C36       1.0  0.6670982487405925  0.25708389438862284  0.9791191949874388  1.0000
  C   C37       1.0  0.5892514063322012  0.24298221222702332  0.9814566115215078  1.0000
  C   C38       1.0  0.5438031469340365  0.3133215390590422  0.06493261333122935  1.0000
  C   C39       1.0  0.5771858698475499  0.3995706748179264  0.14454760346867146  1.0000
  C   C40       1.0  0.655031953854852  0.41367659158826153  0.14235814753278575  1.0000
  C   C41       1.0  0.45993956793756713  0.300479340423333  0.06510383442706912  1.0000
  C   C42       1.0  0.4261318080764116  0.3958558710044053  0.9681606441314097  1.0000
  C   C43       1.0  0.39834685979822343  0.4742832096392926  0.8884463238792688  1.0000
  H   H22       1.0  0.7929036657211135  0.35771212006217046  0.2657104548435538  1.0000
  H   H23       1.0  0.7930180716151343  0.36088503002530903  0.8482705026897567  1.0000
  H   H24       1.0  0.00041149551452601506  0.3971185442316012  0.05087943154316399  1.0000
  H   H25       1.0  0.9316208846329376  0.3844051989905725  0.6064492666490722  1.0000
  H   H26       1.0  0.700968749291601  0.20010908501437408  0.9152670789711993  1.0000
  H   H27       1.0  0.564393217156025  0.17699951963138932  0.9182817428377446  1.0000
  H   H28       1.0  0.5428767101874733  0.4562570702185739  0.20806124134697573  1.0000
  H   H29       1.0  0.6792769211372754  0.4817957287558558  0.20390013844597685  1.0000
  H   H30       1.0  0.4449678710405303  0.20094117778955467  0.04190774760324567  1.0000
  H   H31       1.0  0.4360217581962971  0.3170588657698443  0.1626711362519493  1.0000
  H   H32       1.0  0.3739751074785536  0.5431386792776428  0.8184641189901025  1.0000
  Zn  Zn1       1.0  0.8191336090048602  0.3829705812206496  0.5549991585656799  1.0000
  Zn  Zn2       1.0  0.9837658439177114  0.3751651561319501  0.5525817732616833  1.0000
  C   C44       1.0  0.9015069741969706  0.3738253132867467  0.7910009865979887  1.0000
  C   C45       1.0  0.9013942761729633  0.384311977553519  0.316580045824706  1.0000
  C   C46       1.0  0.901396070010307  0.6162820781084664  0.5485457244466958  1.0000
  C   C47       1.0  0.9015051245413784  0.14185365493933744  0.5590353785011666  1.0000
  O   O2        1.0  0.9638807766561763  0.3830670695163481  0.36405082631635166  1.0000
  O   O3        1.0  0.9639725308122191  0.36914510458885297  0.741695093015009  1.0000
  O   O4        1.0  0.9638821323665641  0.5649320480065858  0.5459107653875054  1.0000
  O   O5        1.0  0.9639711188997113  0.18728013808127897  0.5598350573857698  1.0000
  O   O6        1.0  0.8389282778419566  0.5708556019363451  0.5477458752596968  1.0000
  O   O7        1.0  0.8390186759249564  0.375070218976098  0.743530133180136  1.0000
  O   O8        1.0  0.8389269214721232  0.38899213909334  0.36588430500380714  1.0000
  O   O9        1.0  0.8390172637368747  0.1932051983406318  0.561668633449414  1.0000
