data_image0
_chemical_formula_structural       NC6NC3H6C7NH3C9H8Zn2C4O8
_chemical_formula_sum              "N3 C29 H17 Zn2 O8"
_cell_length_a       14.934028789175542
_cell_length_b       9.275154477615127
_cell_length_c       9.275155815604965
_cell_angle_alpha    86.28252252333478
_cell_angle_beta     90.33293635745233
_cell_angle_gamma    89.3962875590186

_space_group_name_H-M_alt    "P 1"
_space_group_IT_number       1

loop_
  _space_group_symop_operation_xyz
  'x, y, z'

loop_
  _atom_site_type_symbol
  _atom_site_label
  _atom_site_symmetry_multiplicity
  _atom_site_fract_x
  _atom_site_fract_y
  _atom_site_fract_z
  _atom_site_occupancy
  N   N1        1.0  0.8274509329873599  0.5634155470039324  0.41593117576209426  1.0000
  C   C1        1.0  0.7499689890203447  0.5623117760260119  0.4152480774628129  1.0000
  C   C2        1.0  0.6535775650216858  0.5609336116280765  0.41439535506351355  1.0000
  C   C3        1.0  0.6054163827298689  0.6682650550241291  0.48069895512730687  1.0000
  C   C4        1.0  0.5119087667281749  0.6671584937618399  0.4800152519723944  1.0000
  C   C5        1.0  0.4656495813127639  0.5587752650330551  0.4130619858179527  1.0000
  C   C6        1.0  0.36899518220009625  0.561100747785371  0.4144998301046421  1.0000
  N   N2        1.0  0.29150821388609066  0.5629463143624185  0.4156412691239768  1.0000
  C   C7        1.0  0.5138107055708764  0.44995890982055253  0.34584053511664314  1.0000
  C   C8        1.0  0.46593209318859263  0.33212382152515874  0.273049648108402  1.0000
  C   C9        1.0  0.6079451958777555  0.4521946099121241  0.34722168264235864  1.0000
  H   H1        1.0  0.6401465856913531  0.7528322814542305  0.5329406309840043  1.0000
  H   H2        1.0  0.4755614427775296  0.7510744286854389  0.5318544515005255  1.0000
  H   H3        1.0  0.4225433620638544  0.3804215676677054  0.18464993066838753  1.0000
  H   H4        1.0  0.42387834000472674  0.269980201229945  0.3529027605465218  1.0000
  H   H5        1.0  0.5136743650893039  0.25580027473429756  0.22589463843108334  1.0000
  H   H6        1.0  0.6457814349131282  0.3693950095256924  0.29607238427205407  1.0000
  C   C10       1.0  0.062068678324441046  0.13977464560007546  0.4141167668679133  1.0000
  C   C11       1.0  0.0370041632953224  0.22188483641286358  0.2870547154300067  1.0000
  C   C12       1.0  0.004681989680808571  0.1548428198522227  0.1667286940304038  1.0000
  C   C13       1.0  0.9968942892782571  0.004775928951280984  0.17204771758211093  1.0000
  C   C14       1.0  0.02277764342328869  0.9214322928016984  0.296212622233494  1.0000
  C   C15       1.0  0.056899192652047  0.9865762209657245  0.41746811874278866  1.0000
  C   C16       1.0  0.9784203215276749  0.24052284509373376  0.038135772728106206  1.0000
  N   N3        1.0  0.9573132144201588  0.30939395565713734  0.9347800024397581  1.0000
  H   H7        1.0  0.080783645000458  0.2194731232334741  0.7678874701373475  1.0000
  H   H8        1.0  0.9715755439126359  0.9518785125081948  0.07956991114771816  1.0000
  H   H9        1.0  0.07329587016007633  0.6898305328951677  0.6545021430756104  1.0000
  C   C17       1.0  0.05786553157306316  0.5595325890360905  0.9925477877364043  1.0000
  C   C18       1.0  0.9873872857168478  0.6298588125233293  0.06068446524208371  1.0000
  C   C19       1.0  0.9228482156030231  0.7097614468749617  0.9797556790260558  1.0000
  C   C20       1.0  0.9275893467727642  0.7210108763665886  0.8292154165917784  1.0000
  C   C21       1.0  0.9962703906654204  0.649911803788132  0.7593684342280289  1.0000
  C   C22       1.0  0.06110231633407001  0.5668182095370292  0.8390370099930298  1.0000
  C   C23       1.0  0.8612196851153198  0.8042838750080541  0.7459884741320298  1.0000
  C   C24       1.0  0.8056470276797906  0.8740136364364408  0.6762706240907539  1.0000
  C   C25       1.0  0.7382195962896463  0.9586189113735654  0.5916683240655662  1.0000
  H   H10       1.0  0.26641551665646035  0.44299290968956945  0.10491540055703696  1.0000
  H   H11       1.0  0.9833887593781354  0.625866086729701  0.17746269897754963  1.0000
  H   H12       1.0  0.8696760378904482  0.7640077409229052  0.034816195953553564  1.0000
  H   H13       1.0  0.997883465760641  0.656690091082774  0.6422479370870477  1.0000
  H   H14       1.0  0.20029090513220194  0.4831802069694024  0.5650375312054794  1.0000
  H   H15       1.0  0.7563903219458251  0.9627431721203263  0.4756743630867106  1.0000
  H   H16       1.0  0.6718425328086997  0.9073427783625123  0.6065330729003047  1.0000
  H   H17       1.0  0.7352737757871661  0.06995431446252233  0.6286150790747467  1.0000
  Zn  Zn1       1.0  0.9613679089672962  0.5632763444866344  0.4158558163831467  1.0000
  Zn  Zn2       1.0  0.15759138513094673  0.5630738075528509  0.41572836533969326  1.0000
  C   C26       1.0  0.06052357574006281  0.5596971477836874  0.6790097257665544  1.0000
  C   C27       1.0  0.05843785054739856  0.5666548225024415  0.1525746032271036  1.0000
  C   C28       1.0  0.057849760748607024  0.826463249789342  0.4110911845007701  1.0000
  C   C29       1.0  0.06111160945048352  0.2998869889361859  0.4204932145219378  1.0000
  O   O1        1.0  0.13309575100057366  0.5689619571424881  0.20623267246763088  1.0000
  O   O2        1.0  0.1347947584466469  0.5572352010112924  0.6252545049326002  1.0000
  O   O3        1.0  0.13263462092218045  0.772652216033636  0.4089083938776237  1.0000
  O   O4        1.0  0.13525582109106882  0.3535449515733963  0.4225786755401508  1.0000
  O   O5        1.0  0.9837034060456933  0.7728052005367085  0.40900550621860665  1.0000
  O   O6        1.0  0.9858635326970503  0.5573899171455863  0.6253515472804512  1.0000
  O   O7        1.0  0.9841645189912007  0.5691166081178118  0.206327981768335  1.0000
  O   O8        1.0  0.986324589554186  0.3536995931660889  0.42267409285922963  1.0000
