data_image0
_chemical_formula_structural       NC10NC5H10C13OH12C11NCOCH11Zn2C4O8
_chemical_formula_sum              "N3 C45 H33 O10 Zn2"
_cell_length_a       19.4436361288709
_cell_length_b       10.299150109392551
_cell_length_c       10.299158637457992
_cell_angle_alpha    85.56061603079257
_cell_angle_beta     89.6864852280966
_cell_angle_gamma    89.39953782186458

_space_group_name_H-M_alt    "P 1"
_space_group_IT_number       1

loop_
  _space_group_symop_operation_xyz
  'x, y, z'

loop_
  _atom_site_type_symbol
  _atom_site_label
  _atom_site_symmetry_multiplicity
  _atom_site_fract_x
  _atom_site_fract_y
  _atom_site_fract_z
  _atom_site_occupancy
  N   N1        1.0  0.6476469278273624  0.4089127736267122  0.561603571567469  1.0000
  C   C1        1.0  0.5888077031723237  0.4188180119485778  0.5759844520083452  1.0000
  C   C2        1.0  0.515474311200509  0.43117118147666567  0.593972910841904  1.0000
  C   C3        1.0  0.4733064719049416  0.39915491859269103  0.4993084808742603  1.0000
  C   C4        1.0  0.3973993955781976  0.4095949773323717  0.5046331570618856  1.0000
  C   C5        1.0  0.357652480786183  0.3848641538647624  0.611715370539828  1.0000
  C   C6        1.0  0.2815326985978889  0.3887787788660583  0.5987545006143238  1.0000
  C   C7        1.0  0.24094924996893693  0.44646130477276036  0.6925073152615113  1.0000
  C   C8        1.0  0.1692863966245224  0.4500974714691581  0.6819620512611102  1.0000
  C   C9        1.0  0.13721227319622933  0.3956551205348722  0.5779506352790582  1.0000
  C   C10       1.0  0.0634201818726765  0.3993525077325406  0.567250066647891  1.0000
  N   N2        1.0  0.004096345471461398  0.40232501305042145  0.558647518886519  1.0000
  C   C11       1.0  0.1770709111878126  0.3372655164838678  0.4845812965875538  1.0000
  C   C12       1.0  0.24875023125196274  0.3335750768288208  0.49487479760323155  1.0000
  C   C13       1.0  0.38577762698091167  0.3444234736659371  0.7428253595995478  1.0000
  C   C14       1.0  0.44442838775375454  0.38755712145337773  0.790054175223004  1.0000
  C   C15       1.0  0.48862708980909647  0.4854098042578767  0.7156530900992346  1.0000
  H   H1        1.0  0.4954207227869167  0.3700195127131026  0.409010062058254  1.0000
  H   H2        1.0  0.3727075220124239  0.4320748779198731  0.41146597786086636  1.0000
  H   H3        1.0  0.2648030551818303  0.48976993311478306  0.7733423871617792  1.0000
  H   H4        1.0  0.1389254741239162  0.4954285787188308  0.754868869981473  1.0000
  H   H5        1.0  0.1527451516876283  0.29415262031735345  0.40408064730682464  1.0000
  H   H6        1.0  0.2784458503767274  0.2860005278524442  0.42266506886431837  1.0000
  H   H7        1.0  0.3548161295418236  0.28021276510869053  0.8070945734156091  1.0000
  H   H8        1.0  0.4595732434363425  0.35350459343562823  0.8880013621103605  1.0000
  H   H9        1.0  0.45850510933587657  0.5761266996650694  0.6903706140357373  1.0000
  H   H10       1.0  0.5319006224307014  0.5110089912400535  0.7787304566736506  1.0000
  C   C16       1.0  0.8259397260862077  0.024218044886718408  0.560269131811025  1.0000
  C   C17       1.0  0.8246496659866976  0.01248557842638687  0.6970915301909022  1.0000
  C   C18       1.0  0.8239357772263864  0.8894033818641292  0.7662001899847357  1.0000
  C   C19       1.0  0.8245171197500302  0.7772325561830192  0.6967292318209451  1.0000
  C   C20       1.0  0.8258101246922303  0.7870095922630101  0.5599932086040271  1.0000
  C   C21       1.0  0.8265157633032407  0.9109631359703175  0.49256221764273045  1.0000
  C   C22       1.0  0.8225650583035689  0.8779735920398613  0.9108527005326075  1.0000
  C   C23       1.0  0.7802610129900388  0.7858989985991502  0.9792254182289585  1.0000
  C   C24       1.0  0.7789483810398897  0.7752254082356386  0.1153434750569774  1.0000
  C   C25       1.0  0.8203671816162771  0.8554607353899532  0.1855457851345489  1.0000
  C   C26       1.0  0.8620130922106096  0.948501351638593  0.11782110145989656  1.0000
  C   C27       1.0  0.8633416897573896  0.9593504438630351  0.9817026235150911  1.0000
  C   C28       1.0  0.8175105127674235  0.8463721943792386  0.3316567830697369  1.0000
  O   O1        1.0  0.7660969751235767  0.9305118879353487  0.37232409380549863  1.0000
  H   H11       1.0  0.8279279306344618  0.2536647194839039  0.3020141488510069  1.0000
  H   H12       1.0  0.8232436248598611  0.09930216176309337  0.7501121440257905  1.0000
  H   H13       1.0  0.8249005988066779  0.6821200305951293  0.749559941405245  1.0000
  H   H14       1.0  0.8275111504965443  0.9192207009878393  0.38709364760930326  1.0000
  H   H15       1.0  0.8262611664999863  0.46329557081359996  0.5074001223842848  1.0000
  H   H16       1.0  0.7473772556311019  0.7234813482232882  0.9273890571516492  1.0000
  H   H17       1.0  0.7454821756374972  0.704530493734989  0.16599692681186695  1.0000
  H   H18       1.0  0.8936298165465412  0.012495628929497288  0.17041418099208194  1.0000
  H   H19       1.0  0.8968308033254555  0.030490627377602445  0.9318556307725254  1.0000
  H   H20       1.0  0.8680956497833335  0.8732793997321121  0.37140757548120085  1.0000
  H   H21       1.0  0.8063267819780296  0.7445697473722809  0.36956237922003704  1.0000
  H   H22       1.0  0.7663353718160268  0.9208613043050683  0.46894948334779285  1.0000
  C   C29       1.0  0.825939431793787  0.4054746711152841  0.1787575818335827  1.0000
  C   C30       1.0  0.8275142515068032  0.5421598209842216  0.16738132756032686  1.0000
  C   C31       1.0  0.8282587013367706  0.611601949751772  0.04445617400792368  1.0000
  C   C32       1.0  0.82738252513343  0.5425221541964229  0.9320708106683719  1.0000
  C   C33       1.0  0.8258104196134414  0.4057530385274597  0.9415047667569386  1.0000
  C   C34       1.0  0.8251015602932377  0.3380702024428157  0.06523563195993454  1.0000
  C   C35       1.0  0.8299254915912573  0.7561980505261403  0.033395024675593424  1.0000
  C   C36       1.0  0.8721288211149961  0.8232574243619273  0.11558778111346557  1.0000
  C   C37       1.0  0.8335411624332318  0.03106320904906878  0.011205473134366265  1.0000
  C   C38       1.0  0.790518689073903  0.9643793913129763  0.9308024582728907  1.0000
  C   C39       1.0  0.7889727790003069  0.828334327977818  0.941081255782009  1.0000
  N   N3        1.0  0.8332547079390193  0.17112574081760895  0.9999216058552697  1.0000
  C   C40       1.0  0.8921692398206887  0.24903114847532223  0.022635910182340575  1.0000
  O   O2        1.0  0.9514782285891388  0.19851838141465183  0.030678145640642647  1.0000
  C   C41       1.0  0.8840769033888547  0.39300742407510564  0.027253345479091532  1.0000
  H   H23       1.0  0.8253552373315505  0.35289745562552377  0.5106089711620798  1.0000
  H   H24       1.0  0.8272046138865697  0.5949870388728691  0.25431556717677317  1.0000
  H   H25       1.0  0.828864628077387  0.5955126288539125  0.8370676567249357  1.0000
  H   H26       1.0  0.8238892195310312  0.23264170940157933  0.07329548600385039  1.0000
  H   H27       1.0  0.904328443825483  0.7704310806590777  0.18753226113486066  1.0000
  H   H28       1.0  0.7583385011662205  0.018080453527156135  0.8594267898492937  1.0000
  H   H29       1.0  0.7549899428959845  0.7795720538191455  0.8780337350601406  1.0000
  H   H30       1.0  0.7886618603936608  0.2194087022285709  0.9653274414798498  1.0000
  H   H31       1.0  0.8357105295209215  0.41561773925699125  0.0790643592260667  1.0000
  H   H32       1.0  0.8822197780988148  0.439712841206433  0.926533001628302  1.0000
  H   H33       1.0  0.9279498077781381  0.4329675020991912  0.07952946493158186  1.0000
  Zn  Zn1       1.0  0.7505105306143885  0.4070082193096313  0.5607580321049779  1.0000
  Zn  Zn2       1.0  0.9012327341953745  0.4042189626956747  0.5595037434971507  1.0000
  C   C42       1.0  0.8258341483199549  0.40052631858538357  0.7973310757205  1.0000
  C   C43       1.0  0.8259107620715913  0.410702471764381  0.32293081306001215  1.0000
  C   C44       1.0  0.8258319566809655  0.6428239684950903  0.5548701400522377  1.0000
  C   C45       1.0  0.8259129025330413  0.16840326239873016  0.565391818960251  1.0000
  O   O3        1.0  0.8830994319772578  0.4113927948551446  0.3708406725582407  1.0000
  O   O4        1.0  0.8830401436875701  0.3977180343228182  0.7484688666950401  1.0000
  O   O5        1.0  0.8830376026226402  0.5933764656589033  0.5526799516197766  1.0000
  O   O6        1.0  0.8831019216258014  0.21573437372630752  0.5666294906822891  1.0000
  O   O7        1.0  0.7686412917498717  0.5954928092322462  0.5536322853410349  1.0000
  O   O8        1.0  0.7686438325582512  0.399835938305352  0.7494211306055185  1.0000
  O   O9        1.0  0.7687031211654768  0.4135106530072883  0.3717913750649364  1.0000
  O   O10       1.0  0.7687056107963169  0.2178522226244504  0.567580290561396  1.0000
