data_image0
_chemical_formula_structural       NC8NC6H8C7NC2NH7C7OCH10Zn2C4O8
_chemical_formula_sum              "N4 C35 H25 O9 Zn2"
_cell_length_a       17.457602349358154
_cell_length_b       9.273995741505848
_cell_length_c       10.300835455316063
_cell_angle_alpha    85.71363745915025
_cell_angle_beta     92.89337507241441
_cell_angle_gamma    92.2639659462817

_space_group_name_H-M_alt    "P 1"
_space_group_IT_number       1

loop_
  _space_group_symop_operation_xyz
  'x, y, z'

loop_
  _atom_site_type_symbol
  _atom_site_label
  _atom_site_symmetry_multiplicity
  _atom_site_fract_x
  _atom_site_fract_y
  _atom_site_fract_z
  _atom_site_occupancy
  N   N1        1.0  0.7309163695994998  0.6134308104830446  0.6310217203845001  1.0000
  C   C1        1.0  0.6695600802591369  0.5624181702802478  0.6202697754844537  1.0000
  C   C2        1.0  0.593230309433782  0.4989647949056479  0.6069039139449475  1.0000
  C   C3        1.0  0.5349571714098038  0.543588717674713  0.6819127894765937  1.0000
  C   C4        1.0  0.46007834524148744  0.4824882831360371  0.6691676339790682  1.0000
  C   C5        1.0  0.39822862461120323  0.5296046209435576  0.7486044949812196  1.0000
  C   C6        1.0  0.3237828592772491  0.5501069091260078  0.6929030194642058  1.0000
  C   C7        1.0  0.2655086312949871  0.5945265618601405  0.7680192849463274  1.0000
  C   C8        1.0  0.1896279495829667  0.6157013474046267  0.7101044301490849  1.0000
  N   N2        1.0  0.1286327596249303  0.6327187888906133  0.6635410188203605  1.0000
  C   C9        1.0  0.281189562824415  0.6187140924115082  0.8993462100786261  1.0000
  C   C10       1.0  0.3548530365711543  0.5986439407772193  0.9554364015288319  1.0000
  C   C11       1.0  0.4131168274788272  0.554424371098251  0.8807783411421617  1.0000
  C   C12       1.0  0.4447569623199323  0.37601120983158665  0.5799788281675418  1.0000
  C   C13       1.0  0.5030201330133632  0.33169690511609  0.5053707420053273  1.0000
  C   C14       1.0  0.5771149709997885  0.39292226831561256  0.51866611730609  1.0000
  H   H1        1.0  0.5477660273145941  0.6271226228786295  0.7487605865427387  1.0000
  H   H2        1.0  0.31132899615164394  0.5334586243863662  0.5908460459742317  1.0000
  H   H3        1.0  0.236525281037694  0.6530282511309218  0.9582674016641768  1.0000
  H   H4        1.0  0.3668024949173713  0.6170222915316408  0.05712482334676994  1.0000
  H   H5        1.0  0.46952069156864334  0.5377817101372844  0.9268343354878975  1.0000
  H   H6        1.0  0.38799749332139544  0.32565352463336716  0.569192536253039  1.0000
  H   H7        1.0  0.49073158603378053  0.2494028484916937  0.437328111289166  1.0000
  H   H8        1.0  0.621774156354003  0.3576422117626643  0.46025338497084983  1.0000
  C   C15       1.0  0.9274829183458216  0.19947446284151638  0.6461454278721488  1.0000
  C   C16       1.0  0.9409369611962054  0.2833386770697321  0.5298162727736526  1.0000
  C   C17       1.0  0.9612588012634026  0.21918631556878274  0.4189190594668526  1.0000
  C   C18       1.0  0.9689745601646863  0.0691147761660369  0.4212051626560547  1.0000
  C   C19       1.0  0.9539088455520958  0.9838945800619091  0.5363268671644039  1.0000
  C   C20       1.0  0.9320734875087714  0.046664309499792264  0.648429084794518  1.0000
  C   C21       1.0  0.9914473816891497  0.0031821086090066952  0.3023774611869827  1.0000
  N   N3        1.0  0.9942225668449259  0.07757662997950154  0.18461364816079784  1.0000
  C   C22       1.0  0.017227524608450343  0.98078777273989  0.1048285633191779  1.0000
  C   C23       1.0  0.02818964360523047  0.8504193342124503  0.17465805574160975  1.0000
  N   N4        1.0  0.012009512074652841  0.8646596849378587  0.2988835519208828  1.0000
  H   H9        1.0  0.8652802548030988  0.4610985328768644  0.8279400946356135  1.0000
  H   H10       1.0  0.9375970326419056  0.4000197060323885  0.5253551738341422  1.0000
  H   H11       1.0  0.9720746823282741  0.2878923871709689  0.33159459767117583  1.0000
  H   H12       1.0  0.9565077875443599  0.8674588933752242  0.5383388443614827  1.0000
  H   H13       1.0  0.9331148976892183  0.7487291033503577  0.864448885476039  1.0000
  H   H14       1.0  0.02570026155523177  0.004198703890183616  0.001994786068399531  1.0000
  H   H15       1.0  0.016193427830449417  0.7843376864332887  0.3751272208701575  1.0000
  C   C24       1.0  0.9297080722312528  0.6229924327517495  0.26596482960602086  1.0000
  C   C25       1.0  0.0005462159354154804  0.7002083003570554  0.26598677513880964  1.0000
  C   C26       1.0  0.035787762248017614  0.7406049619874994  0.14874227449058375  1.0000
  C   C27       1.0  0.0007305433926492147  0.7004088752138462  0.030703493507997726  1.0000
  C   C28       1.0  0.9298483472023473  0.6231463749471615  0.028609734584928548  1.0000
  C   C29       1.0  0.8946694647688885  0.5851972989711083  0.14670076007352462  1.0000
  C   C30       1.0  0.112630913248281  0.8194983543200216  0.15022945837156065  1.0000
  O   O1        1.0  0.1707094869699155  0.7170536505978221  0.16224915620538738  1.0000
  C   C31       1.0  0.24317029152644312  0.7897844521102996  0.16378997814303764  1.0000
  H   H16       1.0  0.9029970828630473  0.5919447922910608  0.5934901573456304  1.0000
  H   H17       1.0  0.028608465725860954  0.7292213478034271  0.3570820957523415  1.0000
  H   H18       1.0  0.02891922620192889  0.7295609261960581  0.9406346215435387  1.0000
  H   H19       1.0  0.8400396462560109  0.5256343332766893  0.14592177103553605  1.0000
  H   H20       1.0  0.7965526472786683  0.47597989555622044  0.8175409998953538  1.0000
  H   H21       1.0  0.11707357399983899  0.8901051395350539  0.23343394809601747  1.0000
  H   H22       1.0  0.1172515080298202  0.8901357651662106  0.058334498524470924  1.0000
  H   H23       1.0  0.2881782511590618  0.7079935600236613  0.17325840225102018  1.0000
  H   H24       1.0  0.25129622695744247  0.8571405578629199  0.24874815590560817  1.0000
  H   H25       1.0  0.2514839356990392  0.8572098149672445  0.07125262340056038  1.0000
  Zn  Zn1       1.0  0.8456887090640793  0.6189930375559094  0.6404135745847532  1.0000
  Zn  Zn2       1.0  0.013860343780480957  0.627144737038372  0.6541597639712169  1.0000
  C   C32       1.0  0.9297889686624214  0.6173706120402929  0.8844378654393379  1.0000
  C   C33       1.0  0.9297619304968269  0.6287690716711192  0.4101357555816991  1.0000
  C   C34       1.0  0.9312008694611356  0.8865262012015176  0.6428225817467328  1.0000
  C   C35       1.0  0.9283499629347547  0.35961174665674767  0.6517510991421824  1.0000
  O   O2        1.0  0.9936002306638527  0.6337949987857883  0.4637374256263152  1.0000
  O   O3        1.0  0.9935890420530743  0.6185305479260138  0.8412688583400136  1.0000
  O   O4        1.0  0.9947283097246635  0.8358770486810586  0.6461627410097361  1.0000
  O   O5        1.0  0.9924609056446841  0.4164485055484569  0.6588434409309638  1.0000
  O   O6        1.0  0.8670880898111578  0.8296892662656186  0.6357298929272799  1.0000
  O   O7        1.0  0.865948831514209  0.612344498583514  0.8308359456919533  1.0000
  O   O8        1.0  0.865960019616523  0.6276088988631257  0.453302951636519  1.0000
  O   O9        1.0  0.8648206945562154  0.41026239532787495  0.648409064269071  1.0000
