data_image0
_chemical_formula_structural       NC9NC3NH7C7NC2NH8C8NH7Zn2C4O8
_chemical_formula_sum              "N6 C33 H22 Zn2 O8"
_cell_length_a       16.053384444249904
_cell_length_b       9.273995741505848
_cell_length_c       9.274266800404105
_cell_angle_alpha    86.13411906663325
_cell_angle_beta     89.35588104550887
_cell_angle_gamma    89.75855226915094

_space_group_name_H-M_alt    "P 1"
_space_group_IT_number       1

loop_
  _space_group_symop_operation_xyz
  'x, y, z'

loop_
  _atom_site_type_symbol
  _atom_site_label
  _atom_site_symmetry_multiplicity
  _atom_site_fract_x
  _atom_site_fract_y
  _atom_site_fract_z
  _atom_site_occupancy
  N   N1        1.0  0.8007467758102959  0.5467585942014626  0.4104899071209531  1.0000
  C   C1        1.0  0.7502322168259383  0.5230223077542144  0.3273526229048387  1.0000
  C   C2        1.0  0.6874562765727237  0.493529882170997  0.2240758337683584  1.0000
  C   C3        1.0  0.7016517754167483  0.47902204801023957  0.0789304396944348  1.0000
  C   C4        1.0  0.6251251503727653  0.45046249838660124  0.02085986196879897  1.0000
  C   C5        1.0  0.5675059940848456  0.4491351181961362  0.13370870480443164  1.0000
  C   C6        1.0  0.4767498418726652  0.42260018909006236  0.12226932734151097  1.0000
  C   C7        1.0  0.4206603194391297  0.470812816839989  0.22662242982970657  1.0000
  C   C8        1.0  0.33501389991323255  0.4456461011202393  0.21566628440032165  1.0000
  C   C9        1.0  0.2781437574671055  0.49581596420097757  0.32265697605275045  1.0000
  N   N2        1.0  0.232436860814679  0.5361454467392313  0.4086607388787922  1.0000
  C   C10       1.0  0.3047301743837347  0.3721425368929423  0.10037194632554503  1.0000
  C   C11       1.0  0.3598108606022849  0.32406449429476053  0.9962541227951355  1.0000
  C   C12       1.0  0.4452522274463587  0.3490438738997068  0.006769610027693938  1.0000
  N   N3        1.0  0.6062837022765688  0.4755780015266222  0.257596509898925  1.0000
  H   H1        1.0  0.7607018795104594  0.48817606323369084  0.021661104586309314  1.0000
  H   H2        1.0  0.6132834665754913  0.4343201890866392  0.9085185912647464  1.0000
  H   H3        1.0  0.4429188722958057  0.5297279014325004  0.3153420200004271  1.0000
  H   H4        1.0  0.2386332178689495  0.352123305105006  0.09096248536395413  1.0000
  H   H5        1.0  0.3362738441551562  0.2669702920018877  0.9072794787146559  1.0000
  H   H6        1.0  0.4865085803431619  0.30907496762173503  0.9253679332451035  1.0000
  H   H7        1.0  0.5796690247281606  0.4789858914699294  0.36056456246660806  1.0000
  C   C13       1.0  0.0141093206472902  0.11801622914887087  0.4085327819711837  1.0000
  C   C14       1.0  0.029320363015150175  0.19990562181691843  0.2781043131821854  1.0000
  C   C15       1.0  0.05196065716264142  0.13330205901177772  0.15305123314763236  1.0000
  C   C16       1.0  0.060326944552340896  0.9826640131178619  0.15485332905151905  1.0000
  C   C17       1.0  0.0433721252768653  0.8995309828360702  0.28409502959667265  1.0000
  C   C18       1.0  0.019082148883411202  0.9648766030123099  0.41063021913718156  1.0000
  C   C19       1.0  0.08534391380698425  0.9140519295616575  0.02079090193226407  1.0000
  N   N4        1.0  0.08896679615030423  0.9872698793747271  0.8897881856086465  1.0000
  C   C20       1.0  0.11435952624597245  0.888081525377487  0.7990190113019744  1.0000
  C   C21       1.0  0.12590130140524658  0.7574544226032234  0.8754962459769726  1.0000
  N   N5        1.0  0.10768928331876348  0.7739411528383549  0.014951002122248534  1.0000
  H   H8        1.0  0.9456260270436767  0.3858498717059719  0.6162884781825315  1.0000
  H   H9        1.0  0.025716805578286817  0.31680339675257896  0.27347026506671823  1.0000
  H   H10       1.0  0.06415695706059843  0.20047135829392349  0.055074558954585795  1.0000
  H   H11       1.0  0.04618376102436983  0.7829146647476161  0.28608080203454356  1.0000
  H   H12       1.0  0.019094994979889535  0.6686345053223524  0.6503499438555067  1.0000
  H   H13       1.0  0.12409179982216913  0.9100061882803951  0.684047807062448  1.0000
  H   H14       1.0  0.1465514123156877  0.6575163393579064  0.8326755434668156  1.0000
  H   H15       1.0  0.11183778483744972  0.6939272526324641  0.09919552730736547  1.0000
  C   C22       1.0  0.01849303586210249  0.5382466325142845  0.986254862584863  1.0000
  C   C23       1.0  0.9694812938402859  0.436213457742651  0.06735379345955606  1.0000
  C   C24       1.0  0.9154949148103253  0.34551848369543436  0.9994553538383263  1.0000
  C   C25       1.0  0.908730510743103  0.355486796768373  0.8488106713367887  1.0000
  C   C26       1.0  0.9588655338208775  0.4540445584815899  0.7663921057818617  1.0000
  C   C27       1.0  0.014698408007750127  0.5446462499331577  0.8329081302021741  1.0000
  C   C28       1.0  0.8514034321998615  0.2561698908181437  0.775719839382679  1.0000
  C   C29       1.0  0.8957360245304414  0.12323536804395617  0.7439871225785755  1.0000
  N   N6        1.0  0.9307307895803807  0.01831919063969578  0.7189398447201594  1.0000
  H   H16       1.0  0.11211631633656172  0.8533419242097755  0.06608733536608336  1.0000
  H   H17       1.0  0.9715641129046803  0.42869330715250387  0.18434030915712873  1.0000
  H   H18       1.0  0.8782759746178795  0.2682513276896443  0.06466148022039508  1.0000
  H   H19       1.0  0.9556409461351065  0.457414360536841  0.6495230038769364  1.0000
  H   H20       1.0  0.08074209211551998  0.7539148872366614  0.5368157985406024  1.0000
  H   H21       1.0  0.8279540756395161  0.30955184476333336  0.6731822447385931  1.0000
  H   H22       1.0  0.7965979740307576  0.2278860939393792  0.8460395161982  1.0000
  Zn  Zn1       1.0  0.9253231471956488  0.5436920863967214  0.4099703563448265  1.0000
  Zn  Zn2       1.0  0.10786034418184953  0.5392002961306248  0.4091920425738609  1.0000
  C   C30       1.0  0.015380102738535186  0.5376922724613742  0.6728583436523337  1.0000
  C   C31       1.0  0.017805391988793717  0.5452018814525164  0.14630419276347117  1.0000
  C   C32       1.0  0.018163636144271193  0.804758692536367  0.4044892624401055  1.0000
  C   C33       1.0  0.01502178577856219  0.2781337310796721  0.4146733468067032  1.0000
  O   O1        1.0  0.08684649043941839  0.545825224836181  0.19972282843971167  1.0000
  O   O2        1.0  0.08488050864949437  0.5336586732713585  0.6188485681625797  1.0000
  O   O3        1.0  0.0871273065405489  0.7493182193068847  0.402138644023079  1.0000
  O   O4        1.0  0.08459963080579058  0.33016568983137207  0.41643264478263764  1.0000
  O   O5        1.0  0.9485837982807639  0.7527266942303146  0.40272975439407177  1.0000
  O   O6        1.0  0.9463370109032614  0.5370688800269792  0.6194396059605902  1.0000
  O   O7        1.0  0.94830300022146  0.5492353682418578  0.200312132928971  1.0000
  O   O8        1.0  0.9460561400394617  0.3335758237406721  0.4170220573264938  1.0000
