data_image0
_chemical_formula_structural       NC10NC5H10C12ClH9C13OH12Zn2C4O8
_chemical_formula_sum              "N2 C44 H31 Cl1 O9 Zn2"
_cell_length_a       19.4436361288709
_cell_length_b       10.299768534541528
_cell_length_c       10.299153481560891
_cell_angle_alpha    85.58394017871096
_cell_angle_beta     89.72153825952512
_cell_angle_gamma    89.43641405984484

_space_group_name_H-M_alt    "P 1"
_space_group_IT_number       1

loop_
  _space_group_symop_operation_xyz
  'x, y, z'

loop_
  _atom_site_type_symbol
  _atom_site_label
  _atom_site_symmetry_multiplicity
  _atom_site_fract_x
  _atom_site_fract_y
  _atom_site_fract_z
  _atom_site_occupancy
  N   N1        1.0  0.6476601090991382  0.4087505161535083  0.5621457566233887  1.0000
  C   C1        1.0  0.5888289122597943  0.4186550748946582  0.5765303482053321  1.0000
  C   C2        1.0  0.5155055494096658  0.43100739790224424  0.5945234351127797  1.0000
  C   C3        1.0  0.47329615268352004  0.39899242444170646  0.4998472077676639  1.0000
  C   C4        1.0  0.3973943521226586  0.4094315817800704  0.5051758358771732  1.0000
  C   C5        1.0  0.3576737177364048  0.3847051471879963  0.6122481960562514  1.0000
  C   C6        1.0  0.281551067992531  0.3886191525830911  0.5992888694113767  1.0000
  C   C7        1.0  0.2410176107070936  0.4462979093980579  0.693063254535208  1.0000
  C   C8        1.0  0.16935257768746761  0.4499335286849373  0.6825194179000609  1.0000
  C   C9        1.0  0.1372262414316167  0.395494442822822  0.5784877069023324  1.0000
  C   C10       1.0  0.0634319409401507  0.39919127381323743  0.5677885895769363  1.0000
  N   N2        1.0  0.004106328531787301  0.4021633319724567  0.55918720858865  1.0000
  C   C11       1.0  0.1770347718331763  0.33710868292292573  0.4850965270232237  1.0000
  C   C12       1.0  0.2487161715501328  0.3334187911443831  0.49538858105022077  1.0000
  C   C13       1.0  0.38582758561748803  0.3442708155089691  0.7433422534417113  1.0000
  C   C14       1.0  0.44450831715768857  0.38740121412780076  0.7905872929679054  1.0000
  C   C15       1.0  0.4887161957194354  0.48524310782116026  0.7162237592395635  1.0000
  H   H1        1.0  0.4953712403916052  0.36985811378906486  0.40953807017520644  1.0000
  H   H2        1.0  0.3726799406631083  0.43190757144204805  0.4120175960288905  1.0000
  H   H3        1.0  0.2649123336438968  0.4896039045143672  0.7739144788526018  1.0000
  H   H4        1.0  0.1390306922456881  0.49526165939432104  0.7554431914312643  1.0000
  H   H5        1.0  0.1526682695219189  0.29399840749937844  0.4045797984527879  1.0000
  H   H6        1.0  0.2783722164448896  0.2858474470760335  0.42316104071457367  1.0000
  H   H7        1.0  0.3548650710786453  0.28006747758200934  0.8075867626437465  1.0000
  H   H8        1.0  0.45967332339696504  0.35335379734794387  0.8885211159706004  1.0000
  H   H9        1.0  0.45861687782206917  0.5759508235420421  0.6909759166468068  1.0000
  H   H10       1.0  0.5320188700005509  0.510841026340812  0.7793106104505403  1.0000
  C   C16       1.0  0.8258216380591062  0.02409267115030134  0.5606648959410261  1.0000
  C   C17       1.0  0.8303304316355764  0.03352348850791785  0.4241575662792225  1.0000
  C   C18       1.0  0.8326811957894477  0.921161572288564  0.3549950567944322  1.0000
  C   C19       1.0  0.8304617952414906  0.7982333492900849  0.4241719660277194  1.0000
  C   C20       1.0  0.8259513836489238  0.786811032772671  0.560679247068913  1.0000
  C   C21       1.0  0.8236570701250383  0.9002970430645261  0.6281612661201237  1.0000
  C   C22       1.0  0.8374520380108638  0.9321922417702182  0.21058167422916485  1.0000
  C   C23       1.0  0.7983123462721669  0.026427494977782958  0.13644219566530724  1.0000
  C   C24       1.0  0.8028640812457146  0.036612951054399316  0.0005236921203439784  1.0000
  C   C25       1.0  0.8464888271762969  0.9530858817956934  0.9370533506127843  1.0000
  C   C26       1.0  0.8856170141250586  0.8591625146917663  0.009681693292151518  1.0000
  C   C27       1.0  0.8811874218721455  0.8485825556913789  0.145613826420548  1.0000
  Cl  Cl1       1.0  0.8521230195898338  0.9661125086686162  0.7665203644321386  1.0000
  H   H11       1.0  0.8240682751977675  0.3479534667399102  0.612677948061024  1.0000
  H   H12       1.0  0.8329739752221286  0.12846708164399345  0.3714026564959507  1.0000
  H   H13       1.0  0.8313103968637101  0.7113638770393698  0.3712183974572134  1.0000
  H   H14       1.0  0.8201780468739097  0.8922534257563732  0.7334703929176207  1.0000
  H   H15       1.0  0.824260091322366  0.45500434539130985  0.6126995850411638  1.0000
  H   H16       1.0  0.7635442800188604  0.09106359361941395  0.18347457320850946  1.0000
  H   H17       1.0  0.7723181459541592  0.10927016396241473  0.9446650610679477  1.0000
  H   H18       1.0  0.9196177790047891  0.7944933425200397  0.9609661942487766  1.0000
  H   H19       1.0  0.9126058925607905  0.7762019627218955  0.19997089953538816  1.0000
  C   C28       1.0  0.8258274128374287  0.40530553536588276  0.17930003136253903  1.0000
  C   C29       1.0  0.7547144840321707  0.3822397640644952  0.18056125568045744  1.0000
  C   C30       1.0  0.7187835141572394  0.3707053919970724  0.06403213295565724  1.0000
  C   C31       1.0  0.7548768092636702  0.38255405969191875  0.9452519472134489  1.0000
  C   C32       1.0  0.8259456167356553  0.4055982124053672  0.9420441412718379  1.0000
  C   C33       1.0  0.8610059432954417  0.4168357878707205  0.05960509516381651  1.0000
  C   C34       1.0  0.6435996130004401  0.3463322745645614  0.06633863109601412  1.0000
  C   C35       1.0  0.6001114047299639  0.4123719803153323  0.9740332782562665  1.0000
  C   C36       1.0  0.5293589229557752  0.38947938030376283  0.9762817848440628  1.0000
  C   C37       1.0  0.5009036389945951  0.29929400900041125  0.06997613039937622  1.0000
  C   C38       1.0  0.5439306316072792  0.23435909420127607  0.16320386385754393  1.0000
  C   C39       1.0  0.6146863711462679  0.2572219869508039  0.16113347928896626  1.0000
  C   C40       1.0  0.4246807007311207  0.27741619999338796  0.0745247117090877  1.0000
  O   O1        1.0  0.39380356675929096  0.36557389138490093  0.15428994508180183  1.0000
  H   H20       1.0  0.9599692608904767  0.4496745616513722  0.384148518547363  1.0000
  H   H21       1.0  0.726984215674824  0.3749886043288255  0.27226684034743664  1.0000
  H   H22       1.0  0.7275864749201807  0.37200624309124053  0.855299114182194  1.0000
  H   H23       1.0  0.9158230695541643  0.43461408484196457  0.0578466423343349  1.0000
  H   H24       1.0  0.8532720951240214  0.41454788694277345  0.6133283314757638  1.0000
  H   H25       1.0  0.6206831470106172  0.4832472215182195  0.9013063112707874  1.0000
  H   H26       1.0  0.4967352334554572  0.4423619935848595  0.9050727877705955  1.0000
  H   H27       1.0  0.522725055925408  0.16570193797603183  0.23737601687626023  1.0000
  H   H28       1.0  0.6468966694547926  0.20414651518737867  0.23286911691406445  1.0000
  H   H29       1.0  0.4137473400254501  0.17583197535505546  0.11343228194346566  1.0000
  H   H30       1.0  0.40291289099055466  0.29118360274119076  0.9745747944848898  1.0000
  H   H31       1.0  0.34380228807191876  0.34714453830045183  0.1540011810212467  1.0000
  Zn  Zn1       1.0  0.7505227902057753  0.4068461286459244  0.5612994957044488  1.0000
  Zn  Zn2       1.0  0.9012436387910527  0.40405711602683714  0.5600441505753675  1.0000
  C   C41       1.0  0.8259208461284809  0.4003693039607845  0.7978691000318787  1.0000
  C   C42       1.0  0.8258472290338043  0.4105355489042566  0.32347466003804026  1.0000
  C   C43       1.0  0.825922511114959  0.64263914204683  0.5555013864271723  1.0000
  C   C44       1.0  0.8258455123621599  0.1682641515132086  0.5658424432808586  1.0000
  O   O2        1.0  0.8830516551164082  0.4112267077993319  0.3713845854318927  1.0000
  O   O3        1.0  0.8831100564544824  0.39756036916735454  0.7490060228641493  1.0000
  O   O4        1.0  0.8831106301079797  0.5931963421282345  0.5532923857842043  1.0000
  O   O5        1.0  0.8830510300185868  0.21559074504289552  0.5670981255649055  1.0000
  O   O6        1.0  0.7687153475446118  0.59531250058303  0.5542455211364672  1.0000
  O   O7        1.0  0.7687147741426518  0.39967808788031634  0.7499590889998571  1.0000
  O   O8        1.0  0.7686563726006791  0.4133443806569028  0.3723360901527899  1.0000
  O   O9        1.0  0.7686557475135526  0.21770840864918697  0.5680497276542915  1.0000
