data_image0
_chemical_formula_structural       NC10NC3NCH9C6SCOC6H10C7OC3FC3H9Zn2C4O8
_chemical_formula_sum              "N3 C44 H28 S1 O10 F1 Zn2"
_cell_length_a       19.437513618241372
_cell_length_b       10.302038109246572
_cell_length_c       10.29938172300155
_cell_angle_alpha    85.58271297890445
_cell_angle_beta     90.33093660507195
_cell_angle_gamma    89.54061355658763

_space_group_name_H-M_alt    "P 1"
_space_group_IT_number       1

loop_
  _space_group_symop_operation_xyz
  'x, y, z'

loop_
  _atom_site_type_symbol
  _atom_site_label
  _atom_site_symmetry_multiplicity
  _atom_site_fract_x
  _atom_site_fract_y
  _atom_site_fract_z
  _atom_site_occupancy
  N   N1        1.0  0.6483019334074669  0.40976827839098395  0.5759337248172196  1.0000
  C   C1        1.0  0.5893718525914198  0.4267734959770237  0.5729613288651203  1.0000
  C   C2        1.0  0.5159354445685264  0.4480199632299402  0.5692718355484783  1.0000
  C   C3        1.0  0.47415693719243573  0.34685279369832456  0.5575911715302193  1.0000
  C   C4        1.0  0.3982695076759341  0.3569136195887035  0.5503719886773983  1.0000
  C   C5        1.0  0.35870187040532975  0.43775512696782237  0.6161313192196294  1.0000
  C   C6        1.0  0.282519093088471  0.4291473331407938  0.6076854324959009  1.0000
  C   C7        1.0  0.24936188800378611  0.30783373010016457  0.6123030891589227  1.0000
  C   C8        1.0  0.1776268905129125  0.30146214265181026  0.6051337144980957  1.0000
  C   C9        1.0  0.13807835138456953  0.41593166157949124  0.5937088131175841  1.0000
  C   C10       1.0  0.064228840569293  0.4092219453043516  0.5863712762279158  1.0000
  N   N2        1.0  0.004858931955222697  0.40382792342747625  0.5804723550970925  1.0000
  C   C11       1.0  0.1705188270543347  0.5369349149342428  0.5898363633405628  1.0000
  C   C12       1.0  0.2422382665512579  0.5435604424346798  0.597067812938062  1.0000
  C   C13       1.0  0.38739217752475746  0.5300342581084985  0.7060703914206592  1.0000
  N   N3        1.0  0.44439049413071274  0.5932271860335514  0.6856796804363261  1.0000
  C   C14       1.0  0.4882412186443455  0.58394709416135  0.5725706955569965  1.0000
  H   H1        1.0  0.4965254487403499  0.2518179830634826  0.5454498889960561  1.0000
  H   H2        1.0  0.3735490702329586  0.28740780618314976  0.492039407093598  1.0000
  H   H3        1.0  0.2787952557827152  0.21794638049879222  0.6233048372879639  1.0000
  H   H4        1.0  0.1530163312471545  0.20726012221761536  0.60900090700025  1.0000
  H   H5        1.0  0.1403998243714768  0.6261679516311174  0.581146613243565  1.0000
  H   H6        1.0  0.2663673783546311  0.638175156582389  0.5931852481654285  1.0000
  H   H7        1.0  0.3573839068782679  0.5504304922876156  0.7904409592789506  1.0000
  H   H8        1.0  0.5310056194443173  0.654243062813566  0.5783489629857644  1.0000
  H   H9        1.0  0.45858836404380876  0.612031934647248  0.4819315094630141  1.0000
  C   C15       1.0  0.8265185742410187  0.025520656722793467  0.5781621122045653  1.0000
  C   C16       1.0  0.7677151276242075  0.03124918349115946  0.4978946488745244  1.0000
  C   C17       1.0  0.7387806691706207  0.9171354310223626  0.45747709687799926  1.0000
  C   C18       1.0  0.7679364250371938  0.7961128841503105  0.49784346007370894  1.0000
  C   C19       1.0  0.8266489050641422  0.7880654067562192  0.5782553448689258  1.0000
  C   C20       1.0  0.8556726155857599  0.9034267959318838  0.6179131485383982  1.0000
  S   S1        1.0  0.6641402205144324  0.9258871667658136  0.35391870973938894  1.0000
  C   C21       1.0  0.7147439991555883  0.9335003814719787  0.20814203003861764  1.0000
  O   O1        1.0  0.7313400083241375  0.8279440613633181  0.16200360049755824  1.0000
  C   C22       1.0  0.7374441076189666  0.05927128460181419  0.14293394382848779  1.0000
  C   C23       1.0  0.7861021083627421  0.060773410469702194  0.04204758314859757  1.0000
  C   C24       1.0  0.8082230594329778  0.17872494372742806  0.9806065538760023  1.0000
  C   C25       1.0  0.7820583789738929  0.29640781182038123  0.018774465749221925  1.0000
  C   C26       1.0  0.7336074916389257  0.29637446568895576  0.11831042937411795  1.0000
  C   C27       1.0  0.7112571711057318  0.17873047499901573  0.18006870903791672  1.0000
  H   H10       1.0  0.9372764790450826  0.22202845404537433  0.7296246180236878  1.0000
  H   H11       1.0  0.7443128293212354  0.12415299613865917  0.466321204906323  1.0000
  H   H12       1.0  0.7447558477043997  0.70873934197868  0.4657843112057724  1.0000
  H   H13       1.0  0.9010062268385487  0.8980901853042906  0.6797906852783708  1.0000
  H   H14       1.0  0.8490914102027963  0.45768914898419943  0.608507361312632  1.0000
  H   H15       1.0  0.8073893546762156  0.9708461150566383  0.011021222245797272  1.0000
  H   H16       1.0  0.8457645503862928  0.1788327667409515  0.9033874318083575  1.0000
  H   H17       1.0  0.7992625405710495  0.387613172196962  0.9711195492778053  1.0000
  H   H18       1.0  0.7132221931113006  0.38766916458460066  0.1475876311299302  1.0000
  H   H19       1.0  0.6733128306773511  0.18201677795756144  0.25615037409843544  1.0000
  C   C28       1.0  0.8266416294015382  0.40669094562957064  0.1968417725120759  1.0000
  C   C29       1.0  0.8483915952015371  0.2759053405411711  0.2059642156413517  1.0000
  C   C30       1.0  0.8601091950616716  0.21038436597358  0.09336612247001841  1.0000
  C   C31       1.0  0.8483258421271367  0.2761994999664297  0.9706973638253874  1.0000
  C   C32       1.0  0.8265258023832193  0.40689507263770164  0.9595756779650113  1.0000
  C   C33       1.0  0.8159832771868941  0.4714855567061978  0.0732413088124304  1.0000
  C   C34       1.0  0.8823792408132414  0.07187796302321181  0.10287831223693743  1.0000
  O   O2        1.0  0.8611762765712337  0.9990046415120153  0.01841836804002295  1.0000
  C   C35       1.0  0.9287076836009118  0.016046185922192757  0.20810663897930803  1.0000
  C   C36       1.0  0.9231427363788989  0.8842096367710367  0.2532931118939632  1.0000
  C   C37       1.0  0.9671277533611703  0.8302824325570886  0.3514030872920957  1.0000
  F   F1        1.0  0.9610136114243298  0.7033475364253868  0.39497880765885673  1.0000
  C   C38       1.0  0.017389042991513115  0.907050057774881  0.4045201117867503  1.0000
  C   C39       1.0  0.023944565298865017  0.03766494404968547  0.35928104494781093  1.0000
  C   C40       1.0  0.980096048832558  0.0920015458739829  0.2612438323689128  1.0000
  H   H20       1.0  0.7845860267300416  0.6529030113887295  0.3869813011421419  1.0000
  H   H21       1.0  0.8555106776663172  0.22440856389900857  0.3008542573585389  1.0000
  H   H22       1.0  0.8568446992609035  0.2255201872979762  0.8837739281093406  1.0000
  H   H23       1.0  0.7992153513188747  0.5723112169056752  0.06540452541390307  1.0000
  H   H24       1.0  0.8175966736823516  0.45677313538126807  0.6278658255487315  1.0000
  H   H25       1.0  0.8843746407674924  0.8233539905960857  0.21341929709922058  1.0000
  H   H26       1.0  0.0514603874628905  0.8652838483350093  0.48036554871813303  1.0000
  H   H27       1.0  0.06325221612787035  0.0967642817563137  0.3998004420312717  1.0000
  H   H28       1.0  0.9868775638488444  0.1928233081045465  0.22608154920675894  1.0000
  Zn  Zn1       1.0  0.7511965849057435  0.4080505338989118  0.5772509839653033  1.0000
  Zn  Zn2       1.0  0.9019642832239293  0.40553500378806456  0.579165764462497  1.0000
  C   C41       1.0  0.8265452957503454  0.4016841050409277  0.8154019686175082  1.0000
  C   C42       1.0  0.8266172190184997  0.41190304343685713  0.3410149283856654  1.0000
  C   C43       1.0  0.8266214949811792  0.6439268820266322  0.5730625094824688  1.0000
  C   C44       1.0  0.8265409680641087  0.16965870740006217  0.5833544559149275  1.0000
  O   O3        1.0  0.8838245814822928  0.41269197612556763  0.3901274050622571  1.0000
  O   O4        1.0  0.8837671276723639  0.39898496361612135  0.7677423920694588  1.0000
  O   O5        1.0  0.8838278880168512  0.5945990828404559  0.5720515545953277  1.0000
  O   O6        1.0  0.8837637697073738  0.21707786702154075  0.5858181445099748  1.0000
  O   O7        1.0  0.769397046972684  0.596507671525274  0.5705986032575734  1.0000
  O   O8        1.0  0.7693362869021391  0.4008951122118687  0.7662893716772308  1.0000
  O   O9        1.0  0.7693937409871553  0.41460207905751223  0.3886728232724703  1.0000
  O   O10       1.0  0.7693329291930532  0.21898796069301651  0.5843636600863504  1.0000
