data_image0
_chemical_formula_structural       NC12NC2H8C6NO2H5C9NC2H8Zn2C4O8
_chemical_formula_sum              "N4 C35 H21 O10 Zn2"
_cell_length_a       17.80743265337812
_cell_length_b       9.273423624067512
_cell_length_c       9.273598843048156
_cell_angle_alpha    85.05623667597884
_cell_angle_beta     91.13569736745053
_cell_angle_gamma    90.04087344610896

_space_group_name_H-M_alt    "P 1"
_space_group_IT_number       1

loop_
  _space_group_symop_operation_xyz
  'x, y, z'

loop_
  _atom_site_type_symbol
  _atom_site_label
  _atom_site_symmetry_multiplicity
  _atom_site_fract_x
  _atom_site_fract_y
  _atom_site_fract_z
  _atom_site_occupancy
  N   N1        1.0  0.7216174496604864  0.5743232409562913  0.44461833235490006  1.0000
  C   C1        1.0  0.6712535930170146  0.607739913765204  0.3682578286846805  1.0000
  C   C2        1.0  0.6085958927860389  0.6493077978752697  0.2732749731889914  1.0000
  C   C3        1.0  0.6211601482852819  0.7103881130388281  0.13253411019004568  1.0000
  C   C4        1.0  0.5603910149174952  0.7502655349958363  0.04021487879924801  1.0000
  C   C5        1.0  0.4869075778379343  0.7293608981369211  0.08790302975034492  1.0000
  C   C6        1.0  0.4733639462556444  0.6681446367371453  0.22916417156047442  1.0000
  C   C7        1.0  0.5349904818050216  0.6282709696861852  0.32146505322407437  1.0000
  C   C8        1.0  0.39529403039647065  0.6459781521976895  0.2800315111281124  1.0000
  C   C9        1.0  0.3761647060332174  0.6750904971469895  0.421171237995986  1.0000
  C   C10       1.0  0.3026514140119386  0.6542316896027818  0.4689044227230302  1.0000
  C   C11       1.0  0.24731956678275782  0.6039709735481058  0.3764292095510382  1.0000
  C   C12       1.0  0.17166068165646883  0.5824862002063083  0.42571951773601446  1.0000
  N   N2        1.0  0.110836295095515  0.5652138879743869  0.4653455346990416  1.0000
  C   C13       1.0  0.26575419126765887  0.57466638864286  0.2358929497648663  1.0000
  C   C14       1.0  0.3392157439523925  0.5955438002417313  0.18787542532423607  1.0000
  H   H1        1.0  0.6778542691515319  0.7271464137365806  0.09425646094002338  1.0000
  H   H2        1.0  0.5702377706170367  0.7978562165655338  0.9315307982442929  1.0000
  H   H3        1.0  0.4407118843996849  0.7628361589200188  0.014995822018638364  1.0000
  H   H4        1.0  0.5258341606858764  0.5791426957823986  0.43001210172064064  1.0000
  H   H5        1.0  0.417805035402428  0.7158261550086469  0.4939987806908021  1.0000
  H   H6        1.0  0.2889484788887169  0.677659716470226  0.5777864477109091  1.0000
  H   H7        1.0  0.22340305546181471  0.5353347717757526  0.16352311910997486  1.0000
  H   H8        1.0  0.3523797057726139  0.5704076643271783  0.07933182816747153  1.0000
  C   C15       1.0  0.9139027633734688  0.14618462496722806  0.4553413131558863  1.0000
  C   C16       1.0  0.9034844798788242  0.23132799764097206  0.32341724820825246  1.0000
  C   C17       1.0  0.9000190297007913  0.1683973907437104  0.1910595548209435  1.0000
  C   C18       1.0  0.9072176047224001  0.01777647577138408  0.19149942321449198  1.0000
  C   C19       1.0  0.9163166404489224  0.9315833954750864  0.32148560643981106  1.0000
  C   C20       1.0  0.9185580632621423  0.9933412160735738  0.45463536522218484  1.0000
  N   N3        1.0  0.8899706086335997  0.25746426508617115  0.05702849973066959  1.0000
  O   O1        1.0  0.8827638458540894  0.40524009949835804  0.056725382003804725  1.0000
  O   O2        1.0  0.8874093635039375  0.20212646305816626  0.9389572131294988  1.0000
  H   H9        1.0  0.8930011958891516  0.40602025061261976  0.6911085075224666  1.0000
  H   H10       1.0  0.8998260668956842  0.34788027353437845  0.32360781286330664  1.0000
  H   H11       1.0  0.905051067767699  0.9661600504974842  0.09115544501586514  1.0000
  H   H12       1.0  0.9198174758167966  0.8152995049280003  0.31803710903285665  1.0000
  H   H13       1.0  0.8838233483863394  0.8604745787899439  0.802512203027697  1.0000
  C   C21       1.0  0.917762954892386  0.5730272393174909  0.03122744764855767  1.0000
  C   C22       1.0  0.868066062899164  0.6652867540375291  0.09488011264855589  1.0000
  C   C23       1.0  0.8146027373038505  0.7462905131303799  0.011177231407105468  1.0000
  C   C24       1.0  0.8093778528469793  0.7373386000018696  0.8611888020608567  1.0000
  C   C25       1.0  0.8596538384626734  0.6472300733904484  0.7961551416233954  1.0000
  C   C26       1.0  0.9146978440237685  0.5664985501625855  0.8787492278930551  1.0000
  C   C27       1.0  0.7520309937955351  0.8230358364256369  0.7724413341596619  1.0000
  C   C28       1.0  0.7700838425821434  0.8923585429691747  0.636763735182523  1.0000
  C   C29       1.0  0.7152540686995892  0.9724438587735947  0.555239234182094  1.0000
  N   N4        1.0  0.644766961686522  0.9832599105804338  0.6067983498642064  1.0000
  C   C30       1.0  0.6255234389243532  0.9175823973841698  0.7374993104546315  1.0000
  C   C31       1.0  0.6786180607537674  0.8365303199996605  0.8226385165276611  1.0000
  H   H14       1.0  0.8694378917680161  0.672590889821022  0.21086703621382474  1.0000
  H   H15       1.0  0.7773959553531384  0.816590428253722  0.06401898018427321  1.0000
  H   H16       1.0  0.8564032634949126  0.6407959197197834  0.680077904361089  1.0000
  H   H17       1.0  0.08268119172941413  0.419299412705991  0.7947643432586182  1.0000
  H   H18       1.0  0.8262398972016497  0.8863976581873655  0.5949891279949742  1.0000
  H   H19       1.0  0.7288530379724677  0.02640466270383213  0.4509354268464896  1.0000
  H   H20       1.0  0.5688628656291854  0.9279851129192863  0.7753176963867179  1.0000
  H   H21       1.0  0.6621699112537277  0.7834423787641672  0.9257568449814871  1.0000
  Zn  Zn1       1.0  0.8339375529529591  0.5716905632898499  0.450608077588764  1.0000
  Zn  Zn2       1.0  0.9985160820836066  0.5678347088873508  0.45936756981707205  1.0000
  C   C32       1.0  0.9152439846396918  0.5619862848207833  0.7185541769740291  1.0000
  C   C33       1.0  0.9172114570783628  0.5775407641629873  0.1914217062038781  1.0000
  C   C34       1.0  0.9176950439472273  0.8332549356062341  0.4490181801501842  1.0000
  C   C35       1.0  0.9147603318101525  0.30627038108333915  0.4609577784178567  1.0000
  O   O3        1.0  0.9794830288900619  0.5775859747821064  0.2485085496616888  1.0000
  O   O4        1.0  0.9778837038727962  0.5590134849575104  0.6681151709416255  1.0000
  O   O5        1.0  0.9798621178888546  0.7780663592941128  0.4504629004324632  1.0000
  O   O6        1.0  0.9775045591625051  0.358533112913314  0.4661607089746469  1.0000
  O   O7        1.0  0.8549490197115219  0.7809921605813299  0.44381493543441247  1.0000
  O   O8        1.0  0.8529706154935995  0.561941019856367  0.6614671275566655  1.0000
  O   O9        1.0  0.8545699465591265  0.5805134727791792  0.24185877135931677  1.0000
  O   O10       1.0  0.8525914763805291  0.3614605997600193  0.45951103887170297  1.0000
