data_image0
_chemical_formula_structural       NC11NC3H8C12NH11C15H12Zn2C4O8
_chemical_formula_sum              "N3 C45 H31 Zn2 O8"
_cell_length_a       17.807433833752565
_cell_length_b       10.299770795358612
_cell_length_c       10.299157797200026
_cell_angle_alpha    85.53969178690444
_cell_angle_beta     88.54730741847368
_cell_angle_gamma    90.70213480944163

_space_group_name_H-M_alt    "P 1"
_space_group_IT_number       1

loop_
  _space_group_symop_operation_xyz
  'x, y, z'

loop_
  _atom_site_type_symbol
  _atom_site_label
  _atom_site_symmetry_multiplicity
  _atom_site_fract_x
  _atom_site_fract_y
  _atom_site_fract_z
  _atom_site_occupancy
  N   N1        1.0  0.7073332876943288  0.43888120598736163  0.5344706566215702  1.0000
  C   C1        1.0  0.656522900906327  0.4041361223565206  0.601038796250773  1.0000
  C   C2        1.0  0.5933096526771873  0.36091610313324  0.6838410670544619  1.0000
  C   C3        1.0  0.6050536134173528  0.29733204375927946  0.806570121497031  1.0000
  C   C4        1.0  0.5437475337567479  0.255792429840491  0.8870882237459468  1.0000
  C   C5        1.0  0.4705432369850646  0.2775234300210263  0.8455181211848672  1.0000
  C   C6        1.0  0.4578224048121223  0.34126216768869116  0.7223288368105258  1.0000
  C   C7        1.0  0.3800494877841867  0.3643240539933186  0.6779778519034076  1.0000
  C   C8        1.0  0.3612331304886155  0.34748748751426617  0.5483932931360878  1.0000
  C   C9        1.0  0.2879988741505115  0.3691797718176062  0.5067791203837173  1.0000
  C   C10       1.0  0.23263776983514162  0.4080273761176265  0.5939291701593878  1.0000
  C   C11       1.0  0.1572665971137324  0.4303785006174745  0.5509535891533641  1.0000
  N   N2        1.0  0.0966735481096995  0.448347144227929  0.5164043497816158  1.0000
  C   C12       1.0  0.2507624792875579  0.4250746658936768  0.7229825542746675  1.0000
  C   C13       1.0  0.3239440263303398  0.40334738126798914  0.7648521703152822  1.0000
  C   C14       1.0  0.5199857993124295  0.3827972121553204  0.641827151481658  1.0000
  H   H1        1.0  0.6615239541498753  0.2799083781782645  0.8399385611951515  1.0000
  H   H2        1.0  0.552958548521198  0.20631406488349135  0.9818325979752205  1.0000
  H   H3        1.0  0.42391236675993504  0.24294993354267147  0.9089628275225633  1.0000
  H   H4        1.0  0.4028900430671061  0.31586458579032195  0.47967645358603295  1.0000
  H   H5        1.0  0.2745319342771331  0.355326588452229  0.4067414311067843  1.0000
  H   H6        1.0  0.20838844639241813  0.45547468347580616  0.7911847053312759  1.0000
  H   H7        1.0  0.33688276801759093  0.418746023012067  0.8647069681166287  1.0000
  H   H8        1.0  0.511473559335249  0.4336378641754386  0.5473169895142056  1.0000
  C   C15       1.0  0.9019389392604843  0.062244055509476974  0.5254800664110464  1.0000
  C   C16       1.0  0.8801041553463759  0.07092662513246561  0.39507498947036535  1.0000
  C   C17       1.0  0.8691091974835436  0.9581916792342559  0.32895941450910837  1.0000
  C   C18       1.0  0.8802416457134193  0.8356483743898957  0.39500005262804033  1.0000
  C   C19       1.0  0.9020750702330184  0.8249744797430829  0.5254057432282935  1.0000
  C   C20       1.0  0.9128018148185023  0.9388243351180795  0.5899153538129174  1.0000
  C   C21       1.0  0.8460095923095489  0.9684307471192335  0.19099839669492447  1.0000
  C   C22       1.0  0.7912963507714896  0.0582915370903343  0.14834736322815822  1.0000
  C   C23       1.0  0.7695872146773597  0.0678001059614053  0.018495897591220386  1.0000
  C   C24       1.0  0.802180589250569  0.9878579470088734  0.9292342610701851  1.0000
  C   C25       1.0  0.8567133523802397  0.8981911093793337  0.9710030570934386  1.0000
  C   C26       1.0  0.8784826628706969  0.8884279864464708  0.10082175568014408  1.0000
  N   N3        1.0  0.7799429493008148  0.9977145882175698  0.7964226353104739  1.0000
  H   H9        1.0  0.9102270564891466  0.38638707112940035  0.5751890622930271  1.0000
  H   H10       1.0  0.8725927014447811  0.16566422332736774  0.34406822569864537  1.0000
  H   H11       1.0  0.8708446145341718  0.748405609011237  0.34502094378216497  1.0000
  H   H12       1.0  0.9296457905432725  0.9313580758626759  0.6905171229772769  1.0000
  H   H13       1.0  0.9104272760294471  0.49345558858220867  0.5750801419308003  1.0000
  H   H14       1.0  0.7645873667151957  0.12003402992712786  0.215793916789631  1.0000
  H   H15       1.0  0.7272244643508453  0.1372608756061442  0.9875480954511544  1.0000
  H   H16       1.0  0.8824930903731927  0.8360806694342461  0.902910308520942  1.0000
  H   H17       1.0  0.9214210094337716  0.8194919009029863  0.13030322001293038  1.0000
  H   H18       1.0  0.8039196911760049  0.9385214291812727  0.7291664801868385  1.0000
  H   H19       1.0  0.7393383701883977  0.06427838181539136  0.7643700205654191  1.0000
  C   C27       1.0  0.9019199236605371  0.44371339642554775  0.14405493293242433  1.0000
  C   C28       1.0  0.8236673805710466  0.4238315193804507  0.14786280811644903  1.0000
  C   C29       1.0  0.7841518693774575  0.4136457474228874  0.0326437377514146  1.0000
  C   C30       1.0  0.8238905569756101  0.42362821392473093  0.912585176145248  1.0000
  C   C31       1.0  0.9020940645498905  0.443505104068364  0.9068308934418869  1.0000
  C   C32       1.0  0.9406520885549452  0.45342586508866706  0.023117259276978382  1.0000
  C   C33       1.0  0.7014214080660245  0.39263150701144367  0.03771581249210643  1.0000
  C   C34       1.0  0.6676022602738736  0.3048303779913863  0.958185812194056  1.0000
  C   C35       1.0  0.5897494466750287  0.28514814646032227  0.962991097082746  1.0000
  C   C36       1.0  0.5443290156461317  0.3522242503898181  0.047922726766434394  1.0000
  C   C37       1.0  0.5777462631754334  0.44086115391985703  0.12649458558377558  1.0000
  C   C38       1.0  0.6555983200574472  0.46054756540298536  0.12183728616186129  1.0000
  C   C39       1.0  0.4604599402864246  0.33337002931825044  0.050753000219501576  1.0000
  C   C40       1.0  0.426690039714921  0.42631628146491823  0.9549007477906808  1.0000
  C   C41       1.0  0.3989362228871893  0.5027462900481998  0.8760830240820363  1.0000
  H   H20       1.0  0.04967712341209962  0.4804461424100917  0.34421973312250387  1.0000
  H   H21       1.0  0.7934483493494711  0.41447196576129897  0.24080354828940864  1.0000
  H   H22       1.0  0.7935640203036771  0.41765286816176284  0.8233605648838855  1.0000
  H   H23       1.0  0.0009728200915226659  0.46875373077497495  0.01939454105430749  1.0000
  H   H24       1.0  0.9321768321718213  0.4511090602880838  0.5771450999676224  1.0000
  H   H25       1.0  0.7014502065942791  0.25028780058596567  0.8932480230803104  1.0000
  H   H26       1.0  0.564864848393962  0.21738753736232197  0.9005926559979915  1.0000
  H   H27       1.0  0.5434595408221685  0.49508388536574777  0.19110776326800782  1.0000
  H   H28       1.0  0.6798705451466396  0.5304005105431839  0.18262271424647714  1.0000
  H   H29       1.0  0.4454485055357939  0.23276501827489837  0.028013244914503417  1.0000
  H   H30       1.0  0.4365486303586517  0.3482335903801481  0.1490824858340991  1.0000
  H   H31       1.0  0.3745918025986505  0.5698497842017767  0.806887286610499  1.0000
  Zn  Zn1       1.0  0.8196884775253463  0.4416093945938961  0.5292645959529523  1.0000
  Zn  Zn2       1.0  0.9843183440399159  0.4456083331032205  0.5216209980275885  1.0000
  C   C42       1.0  0.9020585693874043  0.4383707604443252  0.7626505103052001  1.0000
  C   C43       1.0  0.901950050252459  0.44884864951137327  0.2882351275207464  1.0000
  C   C44       1.0  0.9020442943929343  0.6808035061291153  0.5202445793053545  1.0000
  C   C45       1.0  0.9019642688075801  0.2064143421352842  0.5306411305228564  1.0000
  O   O1        1.0  0.9644363363671793  0.4520839979212365  0.3337226129009383  1.0000
  O   O2        1.0  0.9645225424211991  0.4381695342101774  0.7113613371911418  1.0000
  O   O3        1.0  0.9645101732822449  0.6339370215047975  0.5156168718185528  1.0000
  O   O4        1.0  0.9644486493085351  0.2563165185788914  0.529466983501325  1.0000
  O   O5        1.0  0.8395581160766321  0.6309012077549994  0.5214186130807692  1.0000
  O   O6        1.0  0.8395704854748403  0.4351352807884525  0.7171630090526471  1.0000
  O   O7        1.0  0.8394842791061699  0.4490496996709486  0.3395227232857241  1.0000
  O   O8        1.0  0.8394965920650292  0.2532822110131031  0.5352671912598661  1.0000
