data_image0
_chemical_formula_structural       NC9NC5H8C7OCH10C9H10Zn2C4O8
_chemical_formula_sum              "N2 C35 H28 O9 Zn2"
_cell_length_a       17.807436237873137
_cell_length_b       10.30083208314754
_cell_length_c       9.272679976505534
_cell_angle_alpha    86.00090220550724
_cell_angle_beta     89.80029134641114
_cell_angle_gamma    88.38439813745397

_space_group_name_H-M_alt    "P 1"
_space_group_IT_number       1

loop_
  _space_group_symop_operation_xyz
  'x, y, z'

loop_
  _atom_site_type_symbol
  _atom_site_label
  _atom_site_symmetry_multiplicity
  _atom_site_fract_x
  _atom_site_fract_y
  _atom_site_fract_z
  _atom_site_occupancy
  N   N1        1.0  0.7015719366536045  0.3763174437263139  0.3978206411618117  1.0000
  C   C1        1.0  0.6409423825165425  0.3410442704590022  0.3855969107065098  1.0000
  C   C2        1.0  0.5655258808625312  0.29716832726573505  0.3703919172380228  1.0000
  C   C3        1.0  0.5470192689222931  0.2249357284842779  0.25386091377181685  1.0000
  C   C4        1.0  0.4737934143163958  0.18222343252901463  0.23900616573425437  1.0000
  C   C5        1.0  0.4180253449309682  0.21136598363670303  0.3406465413587856  1.0000
  C   C6        1.0  0.3402054590472737  0.166089364124695  0.3249508540104893  1.0000
  C   C7        1.0  0.2781280473286516  0.24804196887126692  0.3537132818047386  1.0000
  C   C8        1.0  0.2047599539674957  0.2051267596249746  0.3388737973785605  1.0000
  C   C9        1.0  0.1416337532532652  0.2897733393148274  0.3680391546674868  1.0000
  N   N2        1.0  0.0908932736017118  0.3578233417730416  0.391487297706377  1.0000
  C   C10       1.0  0.19288564084919013  0.08000078903334806  0.2952438434949638  1.0000
  C   C11       1.0  0.2541056500321344  0.998034267370076  0.2664721079924648  1.0000
  C   C12       1.0  0.3273535250535591  0.040553380747365246  0.2810869148307358  1.0000
  C   C13       1.0  0.4372242086954183  0.2840946259686046  0.4574207126600529  1.0000
  C   C14       1.0  0.5105023239541782  0.3266153229320099  0.4721027532110628  1.0000
  H   H1        1.0  0.5891291403726562  0.2018898934823985  0.1742649206789113  1.0000
  H   H2        1.0  0.4605528293278953  0.1278953182929827  0.1469809222577929  1.0000
  H   H3        1.0  0.2867352945535458  0.3457249703191192  0.3857312004220541  1.0000
  H   H4        1.0  0.1363802398868067  0.045884565751729056  0.2834959297052744  1.0000
  H   H5        1.0  0.2447952189786824  0.901161878027759  0.23312136585742427  1.0000
  H   H6        1.0  0.3739220243908318  0.974664596327252  0.25996722101864367  1.0000
  H   H7        1.0  0.39583641648482326  0.3066116128520673  0.5384538638228  1.0000
  H   H8        1.0  0.5242670306294567  0.3821557464718217  0.5629712796020443  1.0000
  C   C15       1.0  0.8962577088953418  0.9857335720268914  0.394804865517268  1.0000
  C   C16       1.0  0.8748197784065209  0.9951046215085199  0.24876450537409323  1.0000
  C   C17       1.0  0.8631499237160383  0.8827207860565189  0.1756769227549113  1.0000
  C   C18       1.0  0.8747641791343622  0.7598455637229581  0.24838449597051326  1.0000
  C   C19       1.0  0.896214746090635  0.7483969960525835  0.39451550112774525  1.0000
  C   C20       1.0  0.9066597875725242  0.8618872341108763  0.46695374106601334  1.0000
  C   C21       1.0  0.842361850622821  0.8938348991753865  0.01832091411890735  1.0000
  O   O1        1.0  0.9087879151268133  0.8959969228736933  0.9348242609089362  1.0000
  C   C22       1.0  0.8900283446809395  0.9064398219955633  0.7868058616745635  1.0000
  H   H9        1.0  0.9053203657695019  0.3095295667800664  0.4502948098694586  1.0000
  H   H10       1.0  0.8671257970552299  0.08973702455270803  0.19125565076662032  1.0000
  H   H11       1.0  0.8670313461906766  0.6733305007674517  0.19061477603969945  1.0000
  H   H12       1.0  0.9232000145615763  0.8538966865150236  0.5795820523467337  1.0000
  H   H13       1.0  0.937501970351048  0.5195383236834927  0.6697275507716984  1.0000
  H   H14       1.0  0.8076883909697581  0.9845782784113165  0.9947836899270764  1.0000
  H   H15       1.0  0.8077173617963064  0.809485036689014  0.994452644339051  1.0000
  H   H16       1.0  0.9427222017680287  0.9080151607370055  0.7226252500829675  1.0000
  H   H17       1.0  0.857922331772192  0.9986548871539466  0.7572637991150626  1.0000
  H   H18       1.0  0.8579341011900222  0.8211697203109154  0.7569063525474768  1.0000
  C   C23       1.0  0.8947133202176769  0.36407123537573605  0.9713234384335726  1.0000
  C   C24       1.0  0.9457688206306728  0.28131992444886733  0.05078966229499082  1.0000
  C   C25       1.0  0.0005230669998110829  0.20891589993559886  0.9813244824636729  1.0000
  C   C26       1.0  0.006073346441193951  0.21687964813135102  0.8303688130501983  1.0000
  C   C27       1.0  0.9541162522112262  0.29791138206093937  0.7495336495479306  1.0000
  C   C28       1.0  0.897759099534032  0.37005935611758134  0.817996953352365  1.0000
  C   C29       1.0  0.06783329267171022  0.13572102068712777  0.7632456391652416  1.0000
  C   C30       1.0  0.04994940344652066  0.07714239717061953  0.6214592997103869  1.0000
  C   C31       1.0  0.10278036281798264  0.19090703372260664  0.6227371764318992  1.0000
  H   H19       1.0  0.7815994309307931  0.45724355881945944  0.2460810212428286  1.0000
  H   H20       1.0  0.9445799686883809  0.27482606974766655  0.16788609526784737  1.0000
  H   H21       1.0  0.03941519368352919  0.14705655543173513  0.046347030131338  1.0000
  H   H22       1.0  0.9557963069472906  0.30344531621355997  0.632725280499479  1.0000
  H   H23       1.0  0.7272057881420846  0.5003254163160764  0.7060222521294284  1.0000
  H   H24       1.0  0.10709841749385562  0.07543944095654863  0.8348153826874749  1.0000
  H   H25       1.0  0.9941494485465424  0.1019530948529881  0.5726769972280903  1.0000
  H   H26       1.0  0.0791329672315859  0.9822702545217417  0.6067261122175123  1.0000
  H   H27       1.0  0.07910843463118677  0.28476231839713195  0.574613852975026  1.0000
  H   H28       1.0  0.16285008436475068  0.16251641334520575  0.6087468833631777  1.0000
  Zn  Zn1       1.0  0.8139216936877828  0.3709770393694898  0.39600131368206837  1.0000
  Zn  Zn2       1.0  0.9785435416011865  0.36315324466985444  0.3933184807244825  1.0000
  C   C32       1.0  0.8971820052901166  0.36375429490947897  0.6579594774742386  1.0000
  C   C33       1.0  0.8952850280809638  0.37037754317617044  0.1313604285076626  1.0000
  C   C34       1.0  0.8961983146905085  0.6041969318129894  0.38882556392176437  1.0000
  C   C35       1.0  0.8962686628710655  0.12993334931515488  0.40049442042561245  1.0000
  O   O2        1.0  0.9579500321309853  0.36951924310547235  0.18405218535645607  1.0000
  O   O3        1.0  0.9594611732784589  0.3586735332586943  0.6032310978728941  1.0000
  O   O4        1.0  0.9586659939034757  0.552834053996758  0.3859035717247936  1.0000
  O   O5        1.0  0.9587451549423198  0.17535873356210896  0.40137960432621855  1.0000
  O   O6        1.0  0.8337200241692644  0.5587715531484723  0.3879401909882678  1.0000
  O   O7        1.0  0.8345152031763691  0.3646125920391507  0.605267639678829  1.0000
  O   O8        1.0  0.8330040558463722  0.3754582443731695  0.18608699395341755  1.0000
  O   O9        1.0  0.8337991790439708  0.18129772630634308  0.4034145210094542  1.0000
