data_image0
_chemical_formula_structural       NC9NC4H8C12H9C9H10Zn2C4O8
_chemical_formula_sum              "N2 C38 H27 Zn2 O8"
_cell_length_a       16.32274767691083
_cell_length_b       10.299137764757564
_cell_length_c       9.272679976505533
_cell_angle_alpha    85.9999409853106
_cell_angle_beta     89.86705810092191
_cell_angle_gamma    89.54283159448198

_space_group_name_H-M_alt    "P 1"
_space_group_IT_number       1

loop_
  _space_group_symop_operation_xyz
  'x, y, z'

loop_
  _atom_site_type_symbol
  _atom_site_label
  _atom_site_symmetry_multiplicity
  _atom_site_fract_x
  _atom_site_fract_y
  _atom_site_fract_z
  _atom_site_occupancy
  N   N1        1.0  0.765482165615701  0.4005713435731548  0.3975030398829025  1.0000
  C   C1        1.0  0.7129090710917522  0.3526937908992718  0.3372544134779928  1.0000
  C   C2        1.0  0.6475603974798233  0.2932294976401184  0.2624251377128577  1.0000
  C   C3        1.0  0.6587095731311509  0.2118929214805276  0.1600672400110444  1.0000
  C   C4        1.0  0.5791470276608819  0.17220026936948374  0.11011998978242321  1.0000
  C   C5        1.0  0.5205022455945681  0.2302896106424448  0.18322495962356533  1.0000
  C   C6        1.0  0.4304885946360997  0.21493714810482656  0.16390788986651234  1.0000
  C   C7        1.0  0.37522860942014624  0.2826439677699313  0.2491082465135468  1.0000
  C   C8        1.0  0.2904549990032354  0.269523013355641  0.23259865446285666  1.0000
  C   C9        1.0  0.23479341231555503  0.3393112590375513  0.3204173747293151  1.0000
  N   N2        1.0  0.1900603794146698  0.395409521592583  0.3910087518905781  1.0000
  C   C10       1.0  0.2598877949085876  0.18858574156316818  0.130751606838569  1.0000
  C   C11       1.0  0.313826308196283  0.120968607258914  0.045664483131945724  1.0000
  C   C12       1.0  0.3984393685086963  0.13373614255444366  0.061729209241771395  1.0000
  C   C13       1.0  0.5586765363501153  0.31499023555312644  0.2898134592991579  1.0000
  H   H1        1.0  0.7174601719184881  0.18026494442167929  0.12026257409493481  1.0000
  H   H2        1.0  0.5705219662756603  0.10572398556827388  0.026462802504531258  1.0000
  H   H3        1.0  0.397654453277947  0.34582915386060664  0.32861715523450674  1.0000
  H   H4        1.0  0.1944424285327375  0.17777679513425637  0.11715137673427492  1.0000
  H   H5        1.0  0.290007259284267  0.05835608308861894  0.9668764649049928  1.0000
  H   H6        1.0  0.4379523321771763  0.07964679076678105  0.9936654250657836  1.0000
  H   H7        1.0  0.5423360444099439  0.2810556323062161  0.4024986361170715  1.0000
  H   H8        1.0  0.5418215061276278  0.418884476963598  0.26516894723923246  1.0000
  C   C14       1.0  0.9776969631151149  0.01659255547194482  0.3944141996178182  1.0000
  C   C15       1.0  0.9770648450877366  0.025353241548616175  0.242620663024419  1.0000
  C   C16       1.0  0.9768247064865148  0.9126614225088702  0.16549859596705344  1.0000
  C   C17       1.0  0.9772251806612768  0.7900932293883943  0.24222176573666698  1.0000
  C   C18       1.0  0.9778534721613508  0.7793782692779583  0.39410996630536976  1.0000
  C   C19       1.0  0.9780868688358221  0.8931386992935016  0.46927107479334623  1.0000
  C   C20       1.0  0.9761550178333885  0.9229742881828777  0.004916046091405062  1.0000
  C   C21       1.0  0.025260678129971792  0.8395005985683476  0.9266084395112376  1.0000
  C   C22       1.0  0.024528485322687702  0.8494596507001118  0.7754548522310377  1.0000
  C   C23       1.0  0.974889446347022  0.942504715637178  0.7008969363924028  1.0000
  C   C24       1.0  0.9258790712601503  0.02584942090812858  0.7773413078864313  1.0000
  C   C25       1.0  0.9264052735009739  0.016387777023932893  0.9284990201436544  1.0000
  H   H9        1.0  0.977891480586921  0.12004509114361019  0.18399405895440224  1.0000
  H   H10       1.0  0.9759138911630242  0.702913528535773  0.18335424972654835  1.0000
  H   H11       1.0  0.9785721931643198  0.8856658788564745  0.5863529470428375  1.0000
  H   H12       1.0  0.9785184046758366  0.5518691113376583  0.6807989458000683  1.0000
  H   H13       1.0  0.0649683467831772  0.767760800877011  0.9821956131789067  1.0000
  H   H14       1.0  0.06265455759206073  0.7851613497247385  0.7160885287880334  1.0000
  H   H15       1.0  0.9744024716668857  0.9500212826843987  0.5838924920035793  1.0000
  H   H16       1.0  0.887264945945087  0.09768105195092791  0.7194410021465925  1.0000
  H   H17       1.0  0.8871669288683436  0.08089044761818046  0.9855873186977657  1.0000
  C   C26       1.0  0.9761135951291594  0.3949387140506328  0.9709260322649955  1.0000
  C   C27       1.0  0.031771254361901285  0.3139227508487059  0.05037271139079724  1.0000
  C   C28       1.0  0.0914654240335151  0.24338244427514777  0.9808862521021614  1.0000
  C   C29       1.0  0.09752053043548847  0.25153759546238974  0.8299281271302652  1.0000
  C   C30       1.0  0.04087915911573159  0.33080282082516543  0.7491129155561986  1.0000
  C   C31       1.0  0.9794368355017732  0.40103213191959597  0.8175981681068635  1.0000
  C   C32       1.0  0.16485258943569303  0.1724812277160772  0.762780941186573  1.0000
  C   C33       1.0  0.14533328786117083  0.11328053135127125  0.6210031560754488  1.0000
  C   C34       1.0  0.2029796233338772  0.22887321886186207  0.6222569187785281  1.0000
  H   H18       1.0  0.8527795383193525  0.4842517288100978  0.24572867544589388  1.0000
  H   H19       1.0  0.03047299317655217  0.3073871212696566  0.16746976373774536  1.0000
  H   H20       1.0  0.13386361322847606  0.18284521233616613  0.04589388836954634  1.0000
  H   H21       1.0  0.04271285659146273  0.33639519898594594  0.6323037422893556  1.0000
  H   H22       1.0  0.7934708130099559  0.5254774617015001  0.7056916083381322  1.0000
  H   H23       1.0  0.20765798094851085  0.1135347926814525  0.8343355879487439  1.0000
  H   H24       1.0  0.0844860043475939  0.13618396985718603  0.5722434948374657  1.0000
  H   H25       1.0  0.1771347803655099  0.01939260206201765  0.6062597246993762  1.0000
  H   H26       1.0  0.1771886982527377  0.321932912203827  0.5741415748481957  1.0000
  H   H27       1.0  0.2684824425027721  0.20253552671217712  0.60824228477608  1.0000
  Zn  Zn1       1.0  0.8880063048932672  0.39907832732530246  0.3956372553560592  1.0000
  Zn  Zn2       1.0  0.0675362904776593  0.396891965055592  0.392886350619875  1.0000
  C   C35       1.0  0.9788057908330358  0.3947062806714127  0.6575610543886329  1.0000
  C   C36       1.0  0.9767387658913768  0.4012656275966906  0.13096266238715626  1.0000
  C   C37       1.0  0.9777971291757769  0.6351542413247666  0.38842285814339417  1.0000
  C   C38       1.0  0.9777473662690898  0.16081610782156575  0.40010093705137084  1.0000
  O   O1        1.0  0.0450792716484336  0.4025536183215035  0.18362846565795587  1.0000
  O   O2        1.0  0.04672438826354264  0.39175790878943473  0.6028069634801627  1.0000
  O   O3        1.0  0.045908968668311186  0.5859226998694327  0.38547597934929123  1.0000
  O   O4        1.0  0.04589462955988699  0.2083888365005777  0.40095934263371313  1.0000
  O   O5        1.0  0.9096479045462372  0.5875814566277744  0.38756426427338675  1.0000
  O   O6        1.0  0.9104633241562119  0.39341822541700444  0.6048951709164476  1.0000
  O   O7        1.0  0.9088182007832737  0.4042138772152146  0.18571493988895083  1.0000
  O   O8        1.0  0.9096335591137028  0.21004908688267362  0.4030459249509889  1.0000
