data_image0
_chemical_formula_structural       NC9NC3NH7C8NH7C7OCH10Zn2C4O8
_chemical_formula_sum              "N4 C32 H24 O9 Zn2"
_cell_length_a       16.053384444249904
_cell_length_b       9.274263428431858
_cell_length_c       10.300835455316065
_cell_angle_alpha    85.53020100870764
_cell_angle_beta     89.8165277291342
_cell_angle_gamma    89.79185309571561

_space_group_name_H-M_alt    "P 1"
_space_group_IT_number       1

loop_
  _space_group_symop_operation_xyz
  'x, y, z'

loop_
  _atom_site_type_symbol
  _atom_site_label
  _atom_site_symmetry_multiplicity
  _atom_site_fract_x
  _atom_site_fract_y
  _atom_site_fract_z
  _atom_site_occupancy
  N   N1        1.0  0.7938687121475346  0.5588376682811964  0.563721885441098  1.0000
  C   C1        1.0  0.7429587031650978  0.5357107605157363  0.4889018941829098  1.0000
  C   C2        1.0  0.6796915154362527  0.5069753305987752  0.39595722982377773  1.0000
  C   C3        1.0  0.6932058062229789  0.49353714732867837  0.26525468991673073  1.0000
  C   C4        1.0  0.6163988757315612  0.4654006779507833  0.21302831497199937  1.0000
  C   C5        1.0  0.5593050492719231  0.4632389576933551  0.31468447712085995  1.0000
  C   C6        1.0  0.46848654541256524  0.436782895175911  0.3044568392093798  1.0000
  C   C7        1.0  0.4128996724133383  0.4842345801180646  0.39831687533299753  1.0000
  C   C8        1.0  0.3271936195302647  0.4591434523813314  0.388520566724168  1.0000
  C   C9        1.0  0.2708390833103134  0.5085332974876156  0.48475083659145346  1.0000
  N   N2        1.0  0.2255466535891459  0.548235767878968  0.5621049030122964  1.0000
  C   C10       1.0  0.2963476382934751  0.3864762821531436  0.28487801186579814  1.0000
  C   C11       1.0  0.3509268172036767  0.33915747224986337  0.19122952171177765  1.0000
  C   C12       1.0  0.4364257003824364  0.36406448063116725  0.20062943481400408  1.0000
  N   N3        1.0  0.598668994822768  0.48877185827381014  0.42620401643632544  1.0000
  H   H1        1.0  0.7519922056498664  0.5031163949567206  0.21364096446447456  1.0000
  H   H2        1.0  0.6040282664176665  0.45008521722221256  0.1118799007883784  1.0000
  H   H3        1.0  0.4355916870209116  0.5425065591017384  0.4780635492630878  1.0000
  H   H4        1.0  0.2302000109897221  0.3665223089606273  0.27646003994415974  1.0000
  H   H5        1.0  0.3269557719388397  0.28270865047839333  0.11124783217466619  1.0000
  H   H6        1.0  0.4772891513075334  0.32468865008176206  0.12741980633431108  1.0000
  H   H7        1.0  0.5725352263994811  0.49141944997438497  0.5189460324125497  1.0000
  C   C13       1.0  0.007075853984856997  0.1300179789933722  0.5631991887096035  1.0000
  C   C14       1.0  0.9962873538687709  0.21362082720413778  0.4445675071877593  1.0000
  C   C15       1.0  0.9936688360079587  0.14875217008988728  0.3269794678727185  1.0000
  C   C16       1.0  0.0024511518999763573  0.9987543119140374  0.3251120593258021  1.0000
  C   C17       1.0  0.011004071239804512  0.9137016193762351  0.4429561381612842  1.0000
  C   C18       1.0  0.012347402817877828  0.9770442514020272  0.5626388056107371  1.0000
  C   C19       1.0  0.998385291258284  0.9288430336904864  0.19843244465885412  1.0000
  C   C20       1.0  0.9119559484873901  0.8920240511709695  0.16989690536738247  1.0000
  N   N4        1.0  0.843739112826555  0.8629622689260686  0.14738299947146238  1.0000
  H   H8        1.0  0.07901374456658883  0.20657303912718183  0.8623019722582739  1.0000
  H   H9        1.0  0.9916823703532357  0.3303524323802865  0.442458031879722  1.0000
  H   H10       1.0  0.9855683057748079  0.21586243863660573  0.2370219940382685  1.0000
  H   H11       1.0  0.01460033007427608  0.7971234183585855  0.44123224924092935  1.0000
  H   H12       1.0  0.05753945258453674  0.6784768407469832  0.765787472455344  1.0000
  H   H13       1.0  0.036869966415976174  0.8287835060430214  0.20331338909349797  1.0000
  H   H14       1.0  0.022968887099958257  0.0030373864664115027  0.11753247068715456  1.0000
  C   C21       1.0  0.009635481844082026  0.5534593682389559  0.18160278048771783  1.0000
  C   C22       1.0  0.08654776451771443  0.6253672923350446  0.17533120518952816  1.0000
  C   C23       1.0  0.12481183440864241  0.6631237086790176  0.054949982014233845  1.0000
  C   C24       1.0  0.08674789733235566  0.6255540553532246  0.9400315482372721  1.0000
  C   C25       1.0  0.009787785288967624  0.5536027997710121  0.9442352199205404  1.0000
  C   C26       1.0  0.9715925642962513  0.5182897830188571  0.06545051796313552  1.0000
  C   C27       1.0  0.20824237312279892  0.7362581565817385  0.049624220483437176  1.0000
  O   O1        1.0  0.27124444075167786  0.6294261055994068  0.05696348580910637  1.0000
  C   C28       1.0  0.34991638836807404  0.6967260378005926  0.052084714558298995  1.0000
  H   H15       1.0  0.9806334534442551  0.5244127842454822  0.5115067988424372  1.0000
  H   H16       1.0  0.11701572275605641  0.6522772816603482  0.2639379306329128  1.0000
  H   H17       1.0  0.11735313021223504  0.6525935747685945  0.8474628448939363  1.0000
  H   H18       1.0  0.912278412634785  0.4628202584076755  0.06952508513719224  1.0000
  H   H19       1.0  0.865061777389632  0.41642384476406485  0.7450143737658836  1.0000
  H   H20       1.0  0.21308841583642968  0.8065461300325767  0.13224376809196836  1.0000
  H   H21       1.0  0.21328155140046356  0.8065633879960413  0.9571289826769438  1.0000
  H   H22       1.0  0.3987389876181149  0.6115346591827593  0.05793298673863778  1.0000
  H   H23       1.0  0.35875905553991294  0.763485786383846  0.1361517320941068  1.0000
  H   H24       1.0  0.35896281351058623  0.7635409493851418  0.9586399143943894  1.0000
  Zn  Zn1       1.0  0.9184416165792372  0.5557743439239533  0.563262753588192  1.0000
  Zn  Zn2       1.0  0.10097365469111197  0.5512873444621299  0.5625746554200963  1.0000
  C   C29       1.0  0.009721366660430109  0.5478302634603347  0.8000851468408556  1.0000
  C   C30       1.0  0.009695909204760603  0.5592331956752981  0.3257523808983078  1.0000
  C   C31       1.0  0.011345642552996088  0.816937351928094  0.5575702744177167  1.0000
  C   C32       1.0  0.00807156025666389  0.29012437600096197  0.5682673239317143  1.0000
  O   O2        1.0  0.07898610721036216  0.5594618600641463  0.37386917811303566  1.0000
  O   O3        1.0  0.07896875523194846  0.5441949822281362  0.7514457259635191  1.0000
  O   O4        1.0  0.08027944503442709  0.7615023826979191  0.5556132531769293  1.0000
  O   O5        1.0  0.07767535516683034  0.34215447142415667  0.5697015537663909  1.0000
  O   O6        1.0  0.941739853814301  0.7649072184946872  0.5561358554698805  1.0000
  O   O7        1.0  0.9404291747781349  0.5476015507642428  0.751968257874186  1.0000
  O   O8        1.0  0.9404465261874163  0.5628683780474791  0.3743901488718535  1.0000
  O   O9        1.0  0.9391357740957197  0.3455609791104579  0.5702226218864264  1.0000
