data_image0
_chemical_formula_structural       NC6NCNH3C10H10C6H6Zn2C4O8
_chemical_formula_sum              "N3 C27 H19 Zn2 O8"
_cell_length_a       13.7447094137227
_cell_length_b       15.491143632010285
_cell_length_c       10.681121600428288
_cell_angle_alpha    82.99762469271862
_cell_angle_beta     89.9998680240133
_cell_angle_gamma    89.41450909084762

_space_group_name_H-M_alt    "P 1"
_space_group_IT_number       1

loop_
  _space_group_symop_operation_xyz
  'x, y, z'

loop_
  _atom_site_type_symbol
  _atom_site_label
  _atom_site_symmetry_multiplicity
  _atom_site_fract_x
  _atom_site_fract_y
  _atom_site_fract_z
  _atom_site_occupancy
  N   N1        1.0  0.9052159276309499  0.9492747083984017  0.5569207043919002  1.0000
  C   C1        1.0  0.8331712993187961  0.95344509118965  0.5003374748289358  1.0000
  C   C2        1.0  0.7436899777896078  0.958624139141751  0.430069006818133  1.0000
  C   C3        1.0  0.7450544179375628  0.9683531355062353  0.29806662537474393  1.0000
  C   C4        1.0  0.6570457005976901  0.9732153469383988  0.2321018899764315  1.0000
  C   C5        1.0  0.5691486906785845  0.9683537751339631  0.29806673657644445  1.0000
  C   C6        1.0  0.5707367340484087  0.9586246025734348  0.4300689594912961  1.0000
  N   N2        1.0  0.6572662652332476  0.9540223137535495  0.4925076330434679  1.0000
  C   C7        1.0  0.4813744795054466  0.9534454237315348  0.5003373588781532  1.0000
  N   N3        1.0  0.4094257415919725  0.9492748683766847  0.556920658696044  1.0000
  H   H1        1.0  0.8132480563895219  0.9721220042083759  0.24692707206325057  1.0000
  H   H2        1.0  0.656959234713452  0.980739273671005  0.13001907863370699  1.0000
  H   H3        1.0  0.5008684291867032  0.9721232389762108  0.24692710225190684  1.0000
  C   C8        1.0  0.1602506636379819  0.694559160175368  0.5734975751975899  1.0000
  C   C9        1.0  0.1472814235585116  0.6363462783600456  0.4919803869349059  1.0000
  C   C10       1.0  0.15276922928666206  0.5407879957709653  0.5276936363842375  1.0000
  C   C11       1.0  0.20257620714726632  0.5023831274317043  0.6358834027758068  1.0000
  C   C12       1.0  0.20633605511051986  0.4119532909884047  0.6649521281481512  1.0000
  C   C13       1.0  0.16188220439601206  0.35775493752409904  0.5861589214127862  1.0000
  C   C14       1.0  0.11207529929069504  0.3961598058615974  0.477969155026481  1.0000
  C   C15       1.0  0.10831530581686735  0.4865896423084221  0.44890042964360877  1.0000
  C   C16       1.0  0.16737008287944954  0.26219665493325633  0.6218721708673816  1.0000
  C   C17       1.0  0.15440033432430034  0.20398370218128092  0.5403550793783947  1.0000
  H   H4        1.0  0.1616506208438897  0.9109206913635547  0.6007713934108221  1.0000
  H   H5        1.0  0.17443710200363063  0.6735653910214608  0.6721016909079915  1.0000
  H   H6        1.0  0.12875745895310467  0.6594866447539441  0.3949316384162924  1.0000
  H   H7        1.0  0.24024666882950818  0.5413954098366132  0.6974013024228711  1.0000
  H   H8        1.0  0.2451988213212073  0.38414699274832304  0.7487865111629534  1.0000
  H   H9        1.0  0.07440469135381371  0.35714758820522813  0.41645125285152135  1.0000
  H   H10       1.0  0.06945268437268794  0.5143960052899934  0.3650660441219673  1.0000
  H   H11       1.0  0.1858942656834539  0.23905629473804565  0.7189208251086093  1.0000
  H   H12       1.0  0.14021346023825942  0.22497740039677291  0.44175106044695406  1.0000
  H   H13       1.0  0.152999576335223  0.9876222109415949  0.5130816357626011  1.0000
  C   C18       1.0  0.157325538080531  0.9492714225604904  0.18918109805933314  1.0000
  C   C19       1.0  0.08824255655846702  0.9010304712510185  0.13089710147431832  1.0000
  C   C20       1.0  0.08824249517605388  0.9010305268686809  1.4957903012870053e-05  1.0000
  C   C21       1.0  0.15732546110857906  0.9492714650797323  0.924671530969432  1.0000
  C   C22       1.0  0.22635142537893502  0.9974724390876077  0.9829575480772812  1.0000
  C   C23       1.0  0.22635141308577178  0.9974724256375432  0.11384984761537065  1.0000
  H   H14       1.0  0.22718673973920497  0.9980562794574739  0.4792649636544708  1.0000
  H   H15       1.0  0.034092054359753834  0.8632169336452352  0.1863940341794219  1.0000
  H   H16       1.0  0.03409203357168256  0.8632169744746554  0.9578900022975806  1.0000
  H   H17       1.0  0.28050899843347565  0.03529095954409977  0.9275046265623192  1.0000
  H   H18       1.0  0.28050894976359025  0.035290929137279374  0.15592899602495303  1.0000
  H   H19       1.0  0.22718704685879806  0.9980559772559886  0.61733595760187  1.0000
  Zn  Zn1       1.0  0.05072001213553625  0.9492724243099924  0.5569280795297011  1.0000
  Zn  Zn2       1.0  0.26392171019417154  0.9492700267944185  0.5569240221889611  1.0000
  C   C24       1.0  0.1573630144335667  0.9458159507339263  0.7858729171410126  1.0000
  C   C25       1.0  0.15728102348346584  0.9527275947753602  0.32797923624403075  1.0000
  C   C26       1.0  0.1555011919752478  0.10769162454216308  0.5416294147085188  1.0000
  C   C27       1.0  0.1591427851588152  0.7908508788446755  0.5722228732423071  1.0000
  O   O1        1.0  0.23817506073882186  0.9538828237600936  0.3745598658069366  1.0000
  O   O2        1.0  0.23828414036794016  0.9446582477354503  0.7392888902307577  1.0000
  O   O3        1.0  0.23677960449569121  0.07537490154521387  0.5420604752975238  1.0000
  O   O4        1.0  0.2396795237885204  0.8231661761560677  0.5717881864417297  1.0000
  O   O5        1.0  0.07496212578590035  0.07537627495010524  0.5420639152716684  1.0000
  O   O6        1.0  0.07646664968583218  0.9446606632645517  0.7392921956338565  1.0000
  O   O7        1.0  0.07635757046863278  0.9538852090627696  0.3745616675539416  1.0000
  O   O8        1.0  0.07786203358559465  0.8231685552547683  0.5717900824819118  1.0000
