data_image0
_chemical_formula_structural       NC6NC2H4C6NCH9C7NH4Zn2C4O8
_chemical_formula_sum              "N4 C26 H17 Zn2 O8"
_cell_length_a       14.927258858638513
_cell_length_b       9.273386996610927
_cell_length_c       9.275157849593905
_cell_angle_alpha    86.01375275156522
_cell_angle_beta     89.74087902936087
_cell_angle_gamma    89.39858807063658

_space_group_name_H-M_alt    "P 1"
_space_group_IT_number       1

loop_
  _space_group_symop_operation_xyz
  'x, y, z'

loop_
  _atom_site_type_symbol
  _atom_site_label
  _atom_site_symmetry_multiplicity
  _atom_site_fract_x
  _atom_site_fract_y
  _atom_site_fract_z
  _atom_site_occupancy
  N   N1        1.0  0.8378473039158806  0.563531833629294  0.4077984254514486  1.0000
  C   C1        1.0  0.7603208129036465  0.5635318052106071  0.4077984360837923  1.0000
  C   C2        1.0  0.6638883047522717  0.5635319198729802  0.40779838604976737  1.0000
  C   C3        1.0  0.6173542069697572  0.5386116177867855  0.2811908436638626  1.0000
  C   C4        1.0  0.5236428958424004  0.5386116421469542  0.2811907102050131  1.0000
  C   C5        1.0  0.47607224186445973  0.5635317424338184  0.4077984049654333  1.0000
  C   C6        1.0  0.3796396667215471  0.5635318570991004  0.40779835492548133  1.0000
  N   N2        1.0  0.30211317570931334  0.5635318286804132  0.4077983655578248  1.0000
  C   C7        1.0  0.5226062726554362  0.5884520445229218  0.534405947345411  1.0000
  C   C8        1.0  0.6163175837827926  0.5884520201627532  0.5344060808042603  1.0000
  H   H1        1.0  0.6534536527426575  0.5192222165006368  0.18268290929206055  1.0000
  H   H2        1.0  0.48834999595805106  0.5192224140669959  0.1826829040332918  1.0000
  H   H3        1.0  0.4865068936272061  0.6078414365287281  0.6329139897857323  1.0000
  H   H4        1.0  0.6516104827144722  0.6078413466690517  0.6329139968105515  1.0000
  C   C9        1.0  0.07273729742254353  0.1398846562575704  0.4085065661592502  1.0000
  C   C10       1.0  0.0888411574210215  0.22210467513132756  0.27820499918692443  1.0000
  C   C11       1.0  0.09651020880214722  0.1563461282802685  0.1478953782025083  1.0000
  C   C12       1.0  0.08819531839624456  0.00601328233359544  0.14455560990165717  1.0000
  C   C13       1.0  0.07367146411087777  0.9228259873856183  0.2744045383036726  1.0000
  C   C14       1.0  0.06723178837380228  0.987167986000209  0.40710275599387113  1.0000
  N   N3        1.0  0.09511479123298994  0.9351923865849828  0.011555617969698947  1.0000
  C   C15       1.0  0.11044221053137519  0.011733776124120517  0.8709253364767929  1.0000
  H   H5        1.0  0.09036011396195254  0.40430920703885875  0.6451030221991849  1.0000
  H   H6        1.0  0.09341545459434288  0.33873353153071206  0.27643696469521983  1.0000
  H   H7        1.0  0.1080887000413735  0.224004992475608  0.050006380759587854  1.0000
  H   H8        1.0  0.06944957732784966  0.8064030115187233  0.27213112174388576  1.0000
  H   H9        1.0  0.09920808900540173  0.8591882515209457  0.7581026680204186  1.0000
  H   H10       1.0  0.08877275502198478  0.8228540600817209  0.014543981803241129  1.0000
  H   H11       1.0  0.05497856358460987  0.09006606764353098  0.8458864722004384  1.0000
  H   H12       1.0  0.17528246955252158  0.06928776159919203  0.8711578777001906  1.0000
  H   H13       1.0  0.11294551122333935  0.9334750908616765  0.7856103457798387  1.0000
  C   C16       1.0  0.0711997459074672  0.5594484655387171  0.9846136330488298  1.0000
  C   C17       1.0  0.14810815456101323  0.6064789089613487  0.05423173569494866  1.0000
  C   C18       1.0  0.2203474451611105  0.6648534698094517  0.9742568456227256  1.0000
  C   C19       1.0  0.21651886777426899  0.6771256221125115  0.8235775654476929  1.0000
  C   C20       1.0  0.14145984842098683  0.628926959615689  0.7526198563848854  1.0000
  C   C21       1.0  0.06876938351556987  0.5676041568671759  0.8309956908765068  1.0000
  C   C22       1.0  0.2981208244560885  0.7138930032771447  0.04717921153629212  1.0000
  N   N4        1.0  0.36063071165843796  0.7533075650755723  0.10579650017104725  1.0000
  H   H14       1.0  0.8535482818640492  0.5108064526428608  0.09253185289221588  1.0000
  H   H15       1.0  0.2720062373719434  0.7227590396190642  0.7606791558465043  1.0000
  H   H16       1.0  0.14121238384794  0.6365116572986333  0.6355428497818703  1.0000
  H   H17       1.0  0.9232040308426026  0.5287969323253074  0.5536534990295583  1.0000
  Zn  Zn1       1.0  0.971824415007953  0.5635280467353136  0.40780674161441754  1.0000
  Zn  Zn2       1.0  0.16813611833768782  0.5635239126518623  0.4078018905195202  1.0000
  C   C23       1.0  0.06926409833945324  0.5603153575280098  0.6710208561877433  1.0000
  C   C24       1.0  0.07069856648990917  0.5667384234528401  0.14458791432207652  1.0000
  C   C25       1.0  0.0682843409368792  0.8269580785265485  0.40162538569828476  1.0000
  C   C26       1.0  0.07167826794690882  0.30009396991937787  0.41398346451655876  1.0000
  O   O1        1.0  0.14502967532185906  0.5691771372185515  0.19827491396333397  1.0000
  O   O2        1.0  0.14392903825417389  0.5578724137573052  0.6173297616377826  1.0000
  O   O3        1.0  0.14313686317224772  0.7731897975814475  0.3997910107393168  1.0000
  O   O4        1.0  0.1458217836591149  0.3538597626747513  0.4158135567932799  1.0000
  O   O5        1.0  0.9941386826949877  0.7731921967153332  0.3997950753347299  1.0000
  O   O6        1.0  0.99493084673095  0.5578765454290222  0.6173337465222457  1.0000
  O   O7        1.0  0.9960314891601268  0.5691812019216635  0.19827716630235925  1.0000
  O   O8        1.0  0.9968235972505146  0.3538638181004288  0.4158159171948981  1.0000
