data_image0
_chemical_formula_structural       NC5NC4H6C10H6C6SCH7Zn2C4O8
_chemical_formula_sum              "N2 C30 H19 S1 Zn2 O8"
_cell_length_a       13.854160002989762
_cell_length_b       9.275150299802176
_cell_length_c       9.275274088470228
_cell_angle_alpha    85.77620997522486
_cell_angle_beta     89.72578587479208
_cell_angle_gamma    89.48388968248379

_space_group_name_H-M_alt    "P 1"
_space_group_IT_number       1

loop_
  _space_group_symop_operation_xyz
  'x, y, z'

loop_
  _atom_site_type_symbol
  _atom_site_label
  _atom_site_symmetry_multiplicity
  _atom_site_fract_x
  _atom_site_fract_y
  _atom_site_fract_z
  _atom_site_occupancy
  N   N1        1.0  0.9045995882033167  0.5638800613980233  0.40151036422546915  1.0000
  C   C1        1.0  0.8323077694360935  0.5885413013116294  0.3423421297774715  1.0000
  C   C2        1.0  0.7423757319161723  0.619220546393257  0.26873458218706947  1.0000
  C   C3        1.0  0.6547480164055516  0.5904066451177084  0.34059934061233904  1.0000
  C   C4        1.0  0.5672333195342822  0.6192205605083365  0.2687345589415334  1.0000
  C   C5        1.0  0.4771996286590877  0.588541154803973  0.3423422222015018  1.0000
  N   N2        1.0  0.4048260179876918  0.5638799978751741  0.40151036449861377  1.0000
  C   C6        1.0  0.5673752633270029  0.6774551868107858  0.12502057105540554  1.0000
  C   C7        1.0  0.6549576508756472  0.7084190801560462  0.05304022743391211  1.0000
  C   C8        1.0  0.6551029538373089  0.7667858572304488  0.8978399618306127  1.0000
  C   C9        1.0  0.742452352664974  0.6774551846277951  0.12502048081680334  1.0000
  H   H1        1.0  0.654664128228189  0.5452228391099107  0.45183195861061937  1.0000
  H   H2        1.0  0.4995526871437903  0.6987219022326934  0.06926734731298678  1.0000
  H   H3        1.0  0.7196248038161769  0.8347475786878078  0.8736755901558604  1.0000
  H   H4        1.0  0.5899163259340202  0.8347475811833497  0.8736756552069083  1.0000
  H   H5        1.0  0.6558807627493093  0.6755463584703038  0.8268241608545113  1.0000
  H   H6        1.0  0.8103756458277396  0.6987220139496426  0.06926726127969851  1.0000
  C   C10       1.0  0.15725634655645224  0.1401973958905549  0.40392289864723074  1.0000
  C   C11       1.0  0.20837189129757291  0.2212144249603809  0.29489858955104886  1.0000
  C   C12       1.0  0.2512276345184612  0.15397723427255738  0.18033380655032571  1.0000
  C   C13       1.0  0.2434037232058665  0.004743114378931604  0.173317686070952  1.0000
  C   C14       1.0  0.19439757405393382  0.9222760957510697  0.2816943354726886  1.0000
  C   C15       1.0  0.15217849850942913  0.9875516425410668  0.39911039583978325  1.0000
  C   C16       1.0  0.3023630293586909  0.23871273568845133  0.06881676751115703  1.0000
  C   C17       1.0  0.3451762617790526  0.3096813551261493  0.9754537625700286  1.0000
  C   C18       1.0  0.39530857105636213  0.3927905888660763  0.866129755545486  1.0000
  C   C19       1.0  0.43811354887315357  0.4637538960616186  0.7727846476361564  1.0000
  H   H7        1.0  0.11074050741731511  0.40469367090266006  0.6327607491671197  1.0000
  H   H8        1.0  0.2130022792781241  0.33768392354909477  0.29712482702026555  1.0000
  H   H9        1.0  0.27604876012423557  0.9517563671336224  0.08466861476823849  1.0000
  H   H10       1.0  0.1914659632118343  0.8062169709594795  0.27547272765847963  1.0000
  H   H11       1.0  0.08834250660718435  0.860331316386077  0.7415011978970345  1.0000
  H   H12       1.0  0.4756998898657158  0.5260657060086338  0.6908199330771696  1.0000
  C   C20       1.0  0.1560969725579655  0.5598542126709276  0.9783425641083663  1.0000
  C   C21       1.0  0.23799058377688098  0.6106388297736214  0.047402485030198165  1.0000
  C   C22       1.0  0.3144542933270853  0.6729180401018289  0.9669847135377454  1.0000
  C   C23       1.0  0.3103054522520561  0.6845510043754751  0.8163585184336819  1.0000
  C   C24       1.0  0.23048098053308225  0.6326742696618066  0.7458018882569748  1.0000
  C   C25       1.0  0.1533379065540181  0.5678948799936521  0.824690721282928  1.0000
  S   S1        1.0  0.4177285357835874  0.7383330333031514  0.057301552276017846  1.0000
  C   C26       1.0  0.3670336632487179  0.9189221064900727  0.06800806715888608  1.0000
  H   H13       1.0  0.9227168103247273  0.5004894288633996  0.08738441796078189  1.0000
  H   H14       1.0  0.3693262080547446  0.7328921425536067  0.7535860986484613  1.0000
  H   H15       1.0  0.23015256537226725  0.6401493136596641  0.628699970641279  1.0000
  H   H16       1.0  0.9973984402097602  0.5220399360471062  0.5480363401113206  1.0000
  H   H17       1.0  0.35293375836620666  0.9693422079084372  0.9577596164338206  1.0000
  H   H18       1.0  0.29882715759953515  0.9135024290877651  0.131404410320761  1.0000
  H   H19       1.0  0.41936073513946975  0.9862403514932008  0.12262506058126574  1.0000
  Zn  Zn1       1.0  0.04895413189658515  0.5638762594621347  0.4015187169518079  1.0000
  Zn  Zn2       1.0  0.2604715076386792  0.5638721057867113  0.4015139137616308  1.0000
  C   C27       1.0  0.15389171455328696  0.5606272892997365  0.6647454437881664  1.0000
  C   C28       1.0  0.15553622337503703  0.5671228976757121  0.13828731797294513  1.0000
  C   C29       1.0  0.15315209623109505  0.8273291189670334  0.3942775897953176  1.0000
  C   C30       1.0  0.15627577965830164  0.30041933531795717  0.40875525864079737  1.0000
  O   O1        1.0  0.23561781030815293  0.5695544640968069  0.19196445144619217  1.0000
  O   O2        1.0  0.23434692950426764  0.5581914779690993  0.6110642561598181  1.0000
  O   O3        1.0  0.23374859139606885  0.773556592587139  0.3926595419600205  1.0000
  O   O4        1.0  0.23621607653018573  0.35418935877467295  0.41036905754025815  1.0000
  O   O5        1.0  0.07320949082459392  0.773559006477089  0.3926635731672308  1.0000
  O   O6        1.0  0.07380781879123606  0.5581956245524227  0.6110682006860748  1.0000
  O   O7        1.0  0.075078705608699  0.5695585439429147  0.19196666369859017  1.0000
  O   O8        1.0  0.07567697153641381  0.35419342932779113  0.4103713778924384  1.0000
