data_image0
_chemical_formula_structural       NC12NC2H8C7NH5C6ClH5Zn2C4O8
_chemical_formula_sum              "N3 C31 H18 Cl1 Zn2 O8"
_cell_length_a       19.240039667572717
_cell_length_b       9.275154477615127
_cell_length_c       10.302974078461048
_cell_angle_alpha    85.7869106659326
_cell_angle_beta     89.99986526728996
_cell_angle_gamma    89.43370810513201

_space_group_name_H-M_alt    "P 1"
_space_group_IT_number       1

loop_
  _space_group_symop_operation_xyz
  'x, y, z'

loop_
  _atom_site_type_symbol
  _atom_site_label
  _atom_site_symmetry_multiplicity
  _atom_site_fract_x
  _atom_site_fract_y
  _atom_site_fract_z
  _atom_site_occupancy
  N   N1        1.0  0.6469609222312658  0.5778878461876735  0.573600662773813  1.0000
  C   C1        1.0  0.586812552969859  0.5778879394230123  0.573600581199375  1.0000
  C   C2        1.0  0.5119945152084703  0.5778880696329287  0.5736004444085507  1.0000
  C   C3        1.0  0.4758616707275789  0.5063187466417002  0.6767206963637464  1.0000
  C   C4        1.0  0.40319150903740536  0.5061956473140251  0.6768067670906859  1.0000
  C   C5        1.0  0.3656622797817827  0.5778881723995539  0.5736002171720893  1.0000
  C   C6        1.0  0.4025087279240626  0.6495809050719028  0.47039386247625803  1.0000
  C   C7        1.0  0.4751800040431555  0.6494575442956065  0.47048005472262  1.0000
  C   C8        1.0  0.2884571897583541  0.5778880850723578  0.5736001214740623  1.0000
  C   C9        1.0  0.2518684313323681  0.4521475266169055  0.615004458740533  1.0000
  C   C10       1.0  0.1791971776016911  0.4522662063383596  0.6149135907118306  1.0000
  C   C11       1.0  0.1421249035183529  0.5778879416662661  0.5736001818480583  1.0000
  C   C12       1.0  0.06730686696475272  0.5778878153882161  0.5736004299718449  1.0000
  N   N2        1.0  0.007158550328342292  0.5778877700643226  0.5736006381588661  1.0000
  C   C13       1.0  0.17800013989059546  0.7035097611772245  0.5322867204140385  1.0000
  C   C14       1.0  0.2506702698093661  0.7036286408675461  0.5321956905643761  1.0000
  H   H1        1.0  0.5038404443713412  0.4509082124785406  0.7572357465025468  1.0000
  H   H2        1.0  0.3763578870897126  0.4516711202692603  0.7584401419839673  1.0000
  H   H3        1.0  0.3751558189405925  0.7041054621503633  0.3887604368595168  1.0000
  H   H4        1.0  0.5026310023924898  0.7048679671460123  0.38996527988706425  1.0000
  H   H5        1.0  0.2794332623644101  0.35316845669496666  0.6458055248014489  1.0000
  H   H6        1.0  0.15194913396006318  0.3542853782979991  0.6467508727872642  1.0000
  H   H7        1.0  0.1498183602142055  0.801490561977041  0.500449452786176  1.0000
  H   H8        1.0  0.2772919171757775  0.8026077986904568  0.5013945800631254  1.0000
  C   C15       1.0  0.8290743269523181  0.15449852708462225  0.5720983200465366  1.0000
  C   C16       1.0  0.8099966145826624  0.23767761754764652  0.4576318805380948  1.0000
  C   C17       1.0  0.7852655853820598  0.17163919880771572  0.3492289000359581  1.0000
  C   C18       1.0  0.7792050609178506  0.021518674582191814  0.35401567890927543  1.0000
  C   C19       1.0  0.7989269470270626  0.937131909087899  0.46587294691540954  1.0000
  C   C20       1.0  0.8250518754464345  0.0012660455562889515  0.5751141732452645  1.0000
  C   C21       1.0  0.765263197997199  0.2584001017361741  0.23338284154916922  1.0000
  N   N3        1.0  0.7491868268544952  0.32813996164884723  0.14027228422675408  1.0000
  H   H9        1.0  0.8425507082886547  0.2311695736630946  0.8907711367081848  1.0000
  H   H10       1.0  0.8128350644401909  0.3546370176377743  0.4537798152083321  1.0000
  H   H11       1.0  0.7598273711002125  0.9693921036764249  0.27070118020370293  1.0000
  H   H12       1.0  0.7952772866148423  0.8206643134740644  0.4657586945605614  1.0000
  H   H13       1.0  0.8370752986330418  0.7024957924784471  0.7886340244806196  1.0000
  C   C22       1.0  0.8270631054072363  0.5778822945443625  0.19236373377229188  1.0000
  C   C23       1.0  0.8156845912721824  0.42813472855973145  0.20106406960209888  1.0000
  C   C24       1.0  0.8100389185783414  0.3538340649955883  0.08842414772689167  1.0000
  C   C25       1.0  0.8156846219704206  0.4281348099851187  0.9659561709209891  1.0000
  C   C26       1.0  0.8270631039879309  0.5778822201211611  0.9548487525806499  1.0000
  C   C27       1.0  0.8326969082333224  0.6520260778289615  0.06870259855789373  1.0000
  Cl  Cl1       1.0  0.7958244535394173  0.166763780237412  0.10079647683428816  1.0000
  H   H14       1.0  0.8313495960500695  0.6342896180103261  0.5163894065212624  1.0000
  H   H15       1.0  0.8111590999428347  0.36857662465710667  0.2950496260477278  1.0000
  H   H16       1.0  0.8111591486085945  0.3685766040840716  0.8798486599005414  1.0000
  H   H17       1.0  0.8414723286773961  0.7675158953400705  0.061064313398434766  1.0000
  H   H18       1.0  0.8313494638565476  0.6342896052515835  0.6233617759944656  1.0000
  Zn  Zn1       1.0  0.7509062044596905  0.577883974990798  0.5736081279046836  1.0000
  Zn  Zn2       1.0  0.9032133427384581  0.5778798805589432  0.5736037265278928  1.0000
  C   C28       1.0  0.8270888288109723  0.5721385318836107  0.8107022739198237  1.0000
  C   C29       1.0  0.8270323729346767  0.5836271427890295  0.3365097143679623  1.0000
  C   C30       1.0  0.8258086239817439  0.8412089409626812  0.5693706245909613  1.0000
  C   C31       1.0  0.8283125340208084  0.3145550014899424  0.5778414267445924  1.0000
  O   O1        1.0  0.8848218539374582  0.5855473225143801  0.3848847295438578  1.0000
  O   O2        1.0  0.8848969467813301  0.5702141569079664  0.7623235406048705  1.0000
  O   O3        1.0  0.8838623860228252  0.7874919151199523  0.5674465316721575  1.0000
  O   O4        1.0  0.8858563626748611  0.36826957461764387  0.5797616411724174  1.0000
  O   O5        1.0  0.7682631325483286  0.7874942809350638  0.5674502132548378  1.0000
  O   O6        1.0  0.7692976850749716  0.5702182549460615  0.7623271591344607  1.0000
  O   O7        1.0  0.7692225925160199  0.5855513703101529  0.38488678701141543  1.0000
  O   O8        1.0  0.7702571012995659  0.3682736121011341  0.5797637959388073  1.0000
