data_image0
_chemical_formula_structural       NC8NH4C9H8C7ONH5Zn2C4O8
_chemical_formula_sum              "N3 C28 H17 O9 Zn2"
_cell_length_a       13.859017124695912
_cell_length_b       9.275152443626249
_cell_length_c       9.273042158839656
_cell_angle_alpha    85.96394158152518
_cell_angle_beta     90.09322216123502
_cell_angle_gamma    90.57357307376715

_space_group_name_H-M_alt    "P 1"
_space_group_IT_number       1

loop_
  _space_group_symop_operation_xyz
  'x, y, z'

loop_
  _atom_site_type_symbol
  _atom_site_label
  _atom_site_symmetry_multiplicity
  _atom_site_fract_x
  _atom_site_fract_y
  _atom_site_fract_z
  _atom_site_occupancy
  N   N1        1.0  0.9173174077617078  0.5619903254514456  0.4047337382714958  1.0000
  C   C1        1.0  0.8447446922855736  0.538533102844435  0.3486518507135341  1.0000
  C   C2        1.0  0.7544685609213387  0.5093557400262294  0.2788931888702959  1.0000
  C   C3        1.0  0.6671179729550193  0.5378006991836981  0.3468991050563528  1.0000
  C   C4        1.0  0.5792382486000777  0.5093569600991156  0.27889260536879834  1.0000
  C   C5        1.0  0.5788914466884326  0.45246053972396866  0.14285931109965566  1.0000
  C   C6        1.0  0.6660604918524159  0.4241249114345981  0.07511516844385269  1.0000
  C   C7        1.0  0.7537567911934365  0.45245820200483106  0.14286049750083718  1.0000
  C   C8        1.0  0.4895048591957309  0.538534024417622  0.3486513495231829  1.0000
  N   N2        1.0  0.41736853526029827  0.5619906458786289  0.40473352115903105  1.0000
  H   H1        1.0  0.6675276146021999  0.5818407297334967  0.4521921310098378  1.0000
  H   H2        1.0  0.5113877662903343  0.4300732575405508  0.08933120356164093  1.0000
  H   H3        1.0  0.6656517508574376  0.38017482050475654  0.9700353760615732  1.0000
  H   H4        1.0  0.8208439556295787  0.4300688290166556  0.08933339639201798  1.0000
  C   C9        1.0  0.1645029169161343  0.1383737047073097  0.40620512851721047  1.0000
  C   C10       1.0  0.12955312832331867  0.2198232666018549  0.28375700824541106  1.0000
  C   C11       1.0  0.10356975908994004  0.15306794043250838  0.15901634989359414  1.0000
  C   C12       1.0  0.1121275974275111  0.0036758426540186547  0.15425398355170694  1.0000
  C   C13       1.0  0.14518935770530073  0.9205272320145569  0.27566725919884094  1.0000
  C   C14       1.0  0.17019220488879735  0.9855963586824243  0.40327461707644185  1.0000
  C   C15       1.0  0.0858359768562873  0.9351656248575043  0.02507718644897738  1.0000
  C   C16       1.0  0.06382287683597167  0.8777708902624537  0.9169118723602546  1.0000
  C   C17       1.0  0.03711432837791651  0.8081205302757261  0.785672233770776  1.0000
  H   H5        1.0  0.303483421449777  0.22305733840364114  0.6940556635260242  1.0000
  H   H6        1.0  0.12446986175759145  0.33633597338402743  0.28330363598545283  1.0000
  H   H7        1.0  0.07766367474470526  0.21832440204553083  0.0656684644224017  1.0000
  H   H8        1.0  0.14924719892325622  0.8041748518314423  0.27164647770466255  1.0000
  H   H9        1.0  0.2606740574929083  0.6923708692670779  0.600154720490603  1.0000
  H   H10       1.0  0.054769169468645185  0.6915405491517134  0.7991373591018167  1.0000
  H   H11       1.0  0.9585579318826966  0.8204951955949561  0.7659405533286479  1.0000
  H   H12       1.0  0.07775402538042409  0.8594863617666555  0.692376952139843  1.0000
  C   C18       1.0  0.16685622426384436  0.5575267044825511  0.9814904069404635  1.0000
  C   C19       1.0  0.07829505640007461  0.5667126527264446  0.05413947685365916  1.0000
  C   C20       1.0  0.9915700080241553  0.5898519511178859  0.9778033134441816  1.0000
  C   C21       1.0  0.9939293644673854  0.6020629029379629  0.8262623753985388  1.0000
  C   C22       1.0  0.08089671639063624  0.5907589929112296  0.7526112013408834  1.0000
  C   C23       1.0  0.16783891883387714  0.5664432870922733  0.8279894034962316  1.0000
  C   C24       1.0  0.8994335970899487  0.5998104463570479  0.05762892558739452  1.0000
  O   O1        1.0  0.8926125567816556  0.5439865792904476  0.18519264046108375  1.0000
  N   N3        1.0  0.8178506357857788  0.672994798741412  0.9938393576602317  1.0000
  H   H13       1.0  0.40132761104081904  0.612628064440567  0.0812597765666141  1.0000
  H   H14       1.0  0.9284099625463625  0.6163258140133516  0.7635899348834556  1.0000
  H   H15       1.0  0.3258350919803077  0.5968636710799402  0.5449623340330656  1.0000
  H   H16       1.0  0.8229157284891108  0.7352880233163814  0.8959580600560422  1.0000
  H   H17       1.0  0.7526331566095921  0.6728323850803906  0.05008240729010006  1.0000
  Zn  Zn1       1.0  0.06162134827181731  0.561986654197886  0.4047420166203913  1.0000
  Zn  Zn2       1.0  0.27306452181616114  0.5619826741315627  0.40473710491968845  1.0000
  C   C25       1.0  0.16761239992499388  0.5590110751925184  0.6680028216568117  1.0000
  C   C26       1.0  0.16707579150274943  0.5649600747289791  0.14147643499825557  1.0000
  C   C27       1.0  0.16910516823849053  0.8253927156951855  0.398085084935899  1.0000
  C   C28       1.0  0.1655829394891917  0.2985767018846366  0.4113942545578486  1.0000
  O   O2        1.0  0.24739102042715744  0.5674469778832971  0.19516736530838052  1.0000
  O   O3        1.0  0.24777763946923104  0.5565200586337076  0.6143077523432242  1.0000
  O   O4        1.0  0.24898198880584888  0.7716266180019451  0.3963472650652467  1.0000
  O   O5        1.0  0.24618659888315286  0.35234042769747087  0.4131277444843345  1.0000
  O   O6        1.0  0.08849919904964998  0.7716289006348269  0.3963513770498348  1.0000
  O   O7        1.0  0.08729486125791719  0.5565240736111148  0.6143117814832215  1.0000
  O   O8        1.0  0.08690823993083252  0.5674509243380803  0.19516966175413364  1.0000
  O   O9        1.0  0.0857038184390384  0.3523443649726918  0.4131301490262007  1.0000
