data_image0
_chemical_formula_structural       NC9NC3NH7C6NCOCH7C7F3H4Zn2C4O8
_chemical_formula_sum              "N4 C31 H18 O9 F3 Zn2"
_cell_length_a       16.053384444249904
_cell_length_b       10.300268703208214
_cell_length_c       9.272721663655245
_cell_angle_alpha    85.87639938124998
_cell_angle_beta     90.31938989593549
_cell_angle_gamma    89.1549403880511

_space_group_name_H-M_alt    "P 1"
_space_group_IT_number       1

loop_
  _space_group_symop_operation_xyz
  'x, y, z'

loop_
  _atom_site_type_symbol
  _atom_site_label
  _atom_site_symmetry_multiplicity
  _atom_site_fract_x
  _atom_site_fract_y
  _atom_site_fract_z
  _atom_site_occupancy
  N   N1        1.0  0.7758458100178673  0.39612520750307795  0.4062179442095186  1.0000
  C   C1        1.0  0.7246667172811266  0.374909893140344  0.32311693000253333  1.0000
  C   C2        1.0  0.6610653015833505  0.3485497428360116  0.21988521237255876  1.0000
  C   C3        1.0  0.6739364417736367  0.33576642853433897  0.07473629481752986  1.0000
  C   C4        1.0  0.5970186774514754  0.31015841380088793  0.016720785577448712  1.0000
  C   C5        1.0  0.5405060481686188  0.3087432226413853  0.12960365848880848  1.0000
  C   C6        1.0  0.4498003078693234  0.28486780760366215  0.11822702489852842  1.0000
  C   C7        1.0  0.39443261740751817  0.3280855106511458  0.22248888561794963  1.0000
  C   C8        1.0  0.3088329726763526  0.30544138478844163  0.21159221977857  1.0000
  C   C9        1.0  0.25269840419061346  0.35041666264997273  0.3184875301923884  1.0000
  N   N2        1.0  0.20758278913661754  0.3865704356901241  0.4044146195304896  1.0000
  C   C10       1.0  0.2778750923580458  0.2394676520762884  0.09644891543844669  1.0000
  C   C11       1.0  0.3322354162936137  0.19637069997366252  0.9924220637180445  1.0000
  C   C12       1.0  0.4176268611316477  0.21884696662195946  0.0028784163097543805  1.0000
  N   N3        1.0  0.5803284432314687  0.33231678384069285  0.253459574638109  1.0000
  H   H1        1.0  0.7323733004853208  0.3441221624418713  0.0174286416248206  1.0000
  H   H2        1.0  0.5841819039323795  0.2958391954988804  0.9043889826837579  1.0000
  H   H3        1.0  0.417195587437799  0.3809724214742783  0.31108641265324666  1.0000
  H   H4        1.0  0.2118085860721408  0.2214564030473474  0.08708657930397679  1.0000
  H   H5        1.0  0.3081803998025308  0.14512419518636088  0.9035648938896963  1.0000
  H   H6        1.0  0.458334529585646  0.18300897203125022  0.9215537714922614  1.0000
  H   H7        1.0  0.5546952495644348  0.335185475847799  0.35644721324159545  1.0000
  C   C13       1.0  0.9918029552913987  0.009998275153462209  0.4053244214832041  1.0000
  C   C14       1.0  0.005067386952554155  0.018345383777950367  0.2553784246476867  1.0000
  C   C15       1.0  0.012889354323388343  0.905227460861739  0.18012380691873742  1.0000
  C   C16       1.0  0.004879114772307292  0.7831902104538232  0.2554151836486378  1.0000
  C   C17       1.0  0.991633649587363  0.7726873195975795  0.4053205416861896  1.0000
  C   C18       1.0  0.9854795671690877  0.8866820904702462  0.4795700452557501  1.0000
  N   N4        1.0  0.02517081350941686  0.9122101224593345  0.026248589777219552  1.0000
  C   C19       1.0  0.073673825825725  0.0098590583376943  0.9485661426231075  1.0000
  O   O1        1.0  0.12105928912946085  0.0821369418419169  0.01495444853353645  1.0000
  C   C20       1.0  0.07286763888678927  0.01995957665285708  0.7870402874808842  1.0000
  H   H8        1.0  0.007663368723215711  0.11284544805401221  0.19670699385848597  1.0000
  H   H9        1.0  0.009743296329273617  0.696426792607833  0.19637047189655732  1.0000
  H   H10       1.0  0.9752718441469395  0.8794344284010583  0.5952250855075245  1.0000
  H   H11       1.0  0.0019229213551765752  0.8370124607392545  0.9684084862284363  1.0000
  H   H12       1.0  0.008895604099043553  0.004136972317608569  0.746426662059509  1.0000
  H   H13       1.0  0.09330225143581039  0.11795817895920235  0.7449093587027167  1.0000
  H   H14       1.0  0.11566013764383597  0.9450896288160205  0.7471682646699076  1.0000
  C   C21       1.0  0.9895145890876511  0.38928528617094443  0.9818884815812052  1.0000
  C   C22       1.0  0.024993908957790637  0.2822809438632008  0.06446326068045805  1.0000
  C   C23       1.0  0.06777316300402259  0.18283948266210315  0.9983801587208746  1.0000
  C   C24       1.0  0.07252106014752657  0.18871438847211525  0.8472104723130155  1.0000
  C   C25       1.0  0.03654861580114477  0.2930259069710952  0.7636694671998139  1.0000
  C   C26       1.0  0.9939220495515445  0.39340030504245216  0.8287564745974616  1.0000
  C   C27       1.0  0.1034514853961419  0.06724236216585468  0.08857917490618038  1.0000
  F   F1        1.0  0.1314984618412458  0.10436427709147503  0.22069474758533134  1.0000
  F   F2        1.0  0.1698688487897133  0.012058132843725266  0.01918215883569352  1.0000
  F   F3        1.0  0.04231104120029561  0.9751210487830188  0.11187082363262689  1.0000
  H   H15       1.0  0.9366394319229647  0.6996921884936796  0.0583268778082786  1.0000
  H   H16       1.0  0.020835238326580408  0.2777593968331191  0.18132629241146914  1.0000
  H   H17       1.0  0.040118329156660915  0.29336224039979863  0.6469999367369423  1.0000
  H   H18       1.0  0.8443751583368063  0.6157412983202777  0.7080889642984474  1.0000
  Zn  Zn1       1.0  0.9004358179555604  0.3933644838254838  0.4057058629787804  1.0000
  Zn  Zn2       1.0  0.08299282142136244  0.38932063676971956  0.4049384858172939  1.0000
  C   C28       1.0  0.9930882179553873  0.3874490885265405  0.6686803419926949  1.0000
  C   C29       1.0  0.990342415311195  0.3952376271338377  0.1419641399413767  1.0000
  C   C30       1.0  0.9916314710849233  0.6284950113365306  0.3995753108037776  1.0000
  C   C31       1.0  0.9917991006341224  0.1541901458541195  0.41106924827572167  1.0000
  O   O2        1.0  0.05989967402309548  0.3956950028003015  0.1953957775913908  1.0000
  O   O3        1.0  0.06208749884971244  0.3839215448234585  0.6146658677566237  1.0000
  O   O4        1.0  0.060910231211966044  0.5785692039070369  0.39736165502777143  1.0000
  O   O5        1.0  0.06107687880176637  0.20104735386102313  0.4126998824669297  1.0000
  O   O6        1.0  0.922351698277371  0.5816377681155238  0.3979444665834284  1.0000
  O   O7        1.0  0.923528965164868  0.3869916688830164  0.6152486024211368  1.0000
  O   O8        1.0  0.9213411313812297  0.39876507318115456  0.19597677863230278  1.0000
  O   O9        1.0  0.9225183367211904  0.20411741547891915  0.4132809916154384  1.0000
