data_image0
_chemical_formula_structural       NC9NC5H8C7OC3OC4H12C7OC6H10Zn2C4O8
_chemical_formula_sum              "N2 C45 H30 O11 Zn2"
_cell_length_a       17.807436237873137
_cell_length_b       10.299371110280156
_cell_length_c       10.299382801718286
_cell_angle_alpha    85.58971110706742
_cell_angle_beta     89.37299496534969
_cell_angle_gamma    88.40331171880233

_space_group_name_H-M_alt    "P 1"
_space_group_IT_number       1

loop_
  _space_group_symop_operation_xyz
  'x, y, z'

loop_
  _atom_site_type_symbol
  _atom_site_label
  _atom_site_symmetry_multiplicity
  _atom_site_fract_x
  _atom_site_fract_y
  _atom_site_fract_z
  _atom_site_occupancy
  N   N1        1.0  0.7078795913801418  0.3874722501951198  0.5575562066886861  1.0000
  C   C1        1.0  0.6472895699011636  0.35228042284198824  0.5465211571571419  1.0000
  C   C2        1.0  0.5719222425916916  0.308505665138129  0.5327947537299405  1.0000
  C   C3        1.0  0.5538420585465365  0.23707023425341722  0.4277687729204216  1.0000
  C   C4        1.0  0.48066427426996666  0.19445680555250666  0.4143586560532168  1.0000
  C   C5        1.0  0.4245179118900931  0.2229012722700321  0.5059419494848747  1.0000
  C   C6        1.0  0.34674879016849103  0.17772910494952404  0.4917725790939609  1.0000
  C   C7        1.0  0.2845781619759533  0.25949021699759744  0.5177373563870948  1.0000
  C   C8        1.0  0.2112580432288799  0.21667375314947981  0.5043408569207097  1.0000
  C   C9        1.0  0.1480376103321205  0.3011262844945018  0.5306703853380508  1.0000
  N   N2        1.0  0.0972213699447746  0.3690202771457307  0.5518385978572025  1.0000
  C   C10       1.0  0.19952497862214394  0.09183819270977069  0.46495414916541566  1.0000
  C   C11       1.0  0.2608382368099913  0.010063226748293411  0.43898097776546025  1.0000
  C   C12       1.0  0.3340389111878813  0.052485110615787096  0.45217481351028166  1.0000
  C   C13       1.0  0.44328952273450023  0.2948311115949487  0.6111873167510453  1.0000
  C   C14       1.0  0.5165201837931743  0.3372541158222768  0.6244417219857471  1.0000
  H   H1        1.0  0.5962481344840266  0.2145710604687383  0.35604847409769347  1.0000
  H   H2        1.0  0.46776095145271257  0.14075844257322445  0.33142077879513704  1.0000
  H   H3        1.0  0.2930828534165755  0.35696058160042266  0.5466452029072353  1.0000
  H   H4        1.0  0.14305753092736076  0.057800131154743584  0.454348504445246  1.0000
  H   H5        1.0  0.2516355460143572  0.9134127262742257  0.4088729696039981  1.0000
  H   H6        1.0  0.38067478539090716  0.986736466451079  0.4331056347952322  1.0000
  H   H7        1.0  0.4016000005120743  0.31679148933173235  0.6842019532292747  1.0000
  H   H8        1.0  0.5299522232412218  0.39217285943926905  0.7063383489764632  1.0000
  C   C15       1.0  0.9025034420397862  0.9968770870492483  0.5545833125370984  1.0000
  C   C16       1.0  0.8938743228338064  0.006550047479737304  0.4187265683210042  1.0000
  C   C17       1.0  0.8886733961763327  0.8942821503413041  0.3503848353285552  1.0000
  C   C18       1.0  0.893911551328254  0.7712804558726771  0.4190371038324349  1.0000
  C   C19       1.0  0.9026046985332282  0.7596051506829962  0.5548226749124503  1.0000
  C   C20       1.0  0.9066536424870488  0.8730121756392117  0.6218506380747457  1.0000
  C   C21       1.0  0.8803451479920176  0.9043309313458943  0.20676185104447792  1.0000
  O   O1        1.0  0.9111535712039193  0.8178210940883132  0.14228725345292403  1.0000
  C   C22       1.0  0.8370579364857688  0.012439343759956584  0.1362875545348441  1.0000
  C   C23       1.0  0.8580819413191262  0.05658120141554979  0.008837792299996483  1.0000
  C   C24       1.0  0.8174605834282768  0.15750774491598207  0.9400543650361124  1.0000
  O   O2        1.0  0.8414709113812164  0.19815560893031092  0.8136054459538618  1.0000
  C   C25       1.0  0.8056766270152375  0.2993231413746516  0.7326970882139343  1.0000
  C   C26       1.0  0.7544289186793077  0.21436380542217348  0.9994673814675189  1.0000
  C   C27       1.0  0.7326339233408226  0.16996838888773858  0.1254114252361216  1.0000
  C   C28       1.0  0.7733887490597539  0.06931669184705314  0.19344072397691445  1.0000
  H   H9        1.0  0.9199339617697471  0.18590827776410726  0.8107172080759577  1.0000
  H   H10       1.0  0.8920245805256444  0.10156307544637744  0.3657246560827993  1.0000
  H   H11       1.0  0.8904678417985841  0.684574295723998  0.3663658639397911  1.0000
  H   H12       1.0  0.9133065446557035  0.8647512077635608  0.726586226229958  1.0000
  H   H13       1.0  0.9065691308991238  0.4276430879045869  0.6068506928367241  1.0000
  H   H14       1.0  0.906664619310868  0.013374945919413692  0.9627520511966686  1.0000
  H   H15       1.0  0.8363412295044104  0.31094497749266914  0.6383770202727135  1.0000
  H   H16       1.0  0.8067741542614794  0.39273586284376544  0.7796994622376036  1.0000
  H   H17       1.0  0.7468054686044635  0.2738764937510308  0.7137976434667561  1.0000
  H   H18       1.0  0.7218069097806525  0.29240037847435585  0.9490585886800713  1.0000
  H   H19       1.0  0.6837675537364288  0.21334928507549256  0.170279614980245  1.0000
  H   H20       1.0  0.7546288716649345  0.03507399869647099  0.29009372951709844  1.0000
  C   C29       1.0  0.9026289984268308  0.37816433803552885  0.17333207320966348  1.0000
  C   C30       1.0  0.9815542643140119  0.3752873292179535  0.17086965852405875  1.0000
  C   C31       1.0  0.021361732749476163  0.37234817137675136  0.05256910387437718  1.0000
  C   C32       1.0  0.981371198456893  0.37532404209122583  0.935626787045841  1.0000
  C   C33       1.0  0.9024791050101347  0.3783178982259419  0.9360738548241313  1.0000
  C   C34       1.0  0.863565588993694  0.37937595829341975  0.05548549458299345  1.0000
  C   C35       1.0  0.10469673818591142  0.37069437574923425  0.049717546787888534  1.0000
  O   O3        1.0  0.13780586652055749  0.42983445487483474  0.9547236480349287  1.0000
  C   C36       1.0  0.1504712785013737  0.3019414365961053  0.15453047828219924  1.0000
  C   C37       1.0  0.22109080513061352  0.34905465788565637  0.18461076883951844  1.0000
  C   C38       1.0  0.26503357904993197  0.28403786630089867  0.28219999771612714  1.0000
  C   C39       1.0  0.2392767256474495  0.1709543486021199  0.3499060868815504  1.0000
  C   C40       1.0  0.1696532067358143  0.12234695295325794  0.31978769391623296  1.0000
  C   C41       1.0  0.12549636978876474  0.1869951751146597  0.22230354971767594  1.0000
  H   H21       1.0  0.7536854741289382  0.3856053769382719  0.3851441931273373  1.0000
  H   H22       1.0  0.012160256772453248  0.37678732022198475  0.2610199799093136  1.0000
  H   H23       1.0  0.011984534114539258  0.37404454518610697  0.8442257960564747  1.0000
  H   H24       1.0  0.8027201557378816  0.3815947140309186  0.05657959572548821  1.0000
  H   H25       1.0  0.872172389005869  0.38057298258457956  0.608704134563975  1.0000
  H   H26       1.0  0.2419598194256629  0.43673915093702226  0.13339682604602585  1.0000
  H   H27       1.0  0.31911660350254434  0.32135869312462173  0.3052910647262559  1.0000
  H   H28       1.0  0.27339797803838595  0.12070971999667424  0.42533304932062066  1.0000
  H   H29       1.0  0.15000697919236994  0.03414859756895416  0.3716122978888259  1.0000
  H   H30       1.0  0.07231499513841477  0.1463494296871568  0.19901198419151028  1.0000
  Zn  Zn1       1.0  0.8202352152999025  0.3821439455826346  0.5559137380313346  1.0000
  Zn  Zn2       1.0  0.9848657243248023  0.37433799773068593  0.5534917398604575  1.0000
  C   C42       1.0  0.9025050980027445  0.37311526408691426  0.7918977603339274  1.0000
  C   C43       1.0  0.9025976395744743  0.38336823263138586  0.3175078190910381  1.0000
  C   C44       1.0  0.9025827024851908  0.6154324437023131  0.5496022737889307  1.0000
  C   C45       1.0  0.902519978694415  0.14104949539054884  0.5598033752118621  1.0000
  O   O4        1.0  0.9650635347008957  0.38214672492419555  0.3649753790091188  1.0000
  O   O5        1.0  0.9649899498789456  0.3684112581937862  0.7425915856899439  1.0000
  O   O6        1.0  0.9650517740026103  0.5640854854575138  0.5469362788384033  1.0000
  O   O7        1.0  0.9650016544203555  0.18647250959473083  0.5606305893148609  1.0000
  O   O8        1.0  0.8400992290240377  0.5700094363837886  0.5487748893966095  1.0000
  O   O9        1.0  0.8400374051176747  0.3743367694106988  0.7444301274920011  1.0000
  O   O10       1.0  0.8401109902903696  0.388072190568427  0.36681235938737816  1.0000
  O   O11       1.0  0.8400491099863934  0.19239796596989892  0.5624676670585976  1.0000
