data_image0
_chemical_formula_structural       NC9NC4H8C8NH7C6NCOCH7Zn2C4O8
_chemical_formula_sum              "N4 C33 H22 O9 Zn2"
_cell_length_a       16.32274767691083
_cell_length_b       9.274263428431858
_cell_length_c       10.300272075376752
_cell_angle_alpha    85.50073118393561
_cell_angle_beta     89.46610543676563
_cell_angle_gamma    90.1410557844374

_space_group_name_H-M_alt    "P 1"
_space_group_IT_number       1

loop_
  _space_group_symop_operation_xyz
  'x, y, z'

loop_
  _atom_site_type_symbol
  _atom_site_label
  _atom_site_symmetry_multiplicity
  _atom_site_fract_x
  _atom_site_fract_y
  _atom_site_fract_z
  _atom_site_occupancy
  N   N1        1.0  0.78110737988784  0.5687155758401914  0.5558001810739992  1.0000
  C   C1        1.0  0.7284591709838393  0.5160492430154064  0.5015475615130488  1.0000
  C   C2        1.0  0.6630172047772039  0.45063724762204593  0.43416537418995743  1.0000
  C   C3        1.0  0.6740387917417677  0.36116531254737083  0.34199424074229257  1.0000
  C   C4        1.0  0.5944139667536903  0.3175025323733632  0.297017794092282  1.0000
  C   C5        1.0  0.5358602965178  0.38140200179062217  0.36284728232031443  1.0000
  C   C6        1.0  0.4458225500780623  0.3645139450707797  0.34545266853384915  1.0000
  C   C7        1.0  0.39066879394496234  0.4389929062146599  0.4221737953976908  1.0000
  C   C8        1.0  0.3058745915385748  0.42455956144744744  0.40730725595352657  1.0000
  C   C9        1.0  0.2503225029707087  0.5013281431176497  0.48638616381727184  1.0000
  N   N2        1.0  0.20567749020780318  0.5630374503563684  0.5499522119287452  1.0000
  C   C10       1.0  0.2751803918212996  0.33552679993907564  0.31559613519239016  1.0000
  C   C11       1.0  0.329012815240551  0.26114649149527747  0.23897697233894366  1.0000
  C   C12       1.0  0.413645913574872  0.27519106872460664  0.25344291932518326  1.0000
  C   C13       1.0  0.574167464471997  0.4745744848730231  0.4588279828264979  1.0000
  H   H1        1.0  0.7327397871874655  0.32637389693484  0.3061509756314553  1.0000
  H   H2        1.0  0.5856846281023356  0.2443772314166126  0.22168625687925503  1.0000
  H   H3        1.0  0.4131937788285029  0.5084979858929278  0.4937698927180861  1.0000
  H   H4        1.0  0.2097180609122276  0.3236367138262981  0.303349414909214  1.0000
  H   H5        1.0  0.3050955227118382  0.19227135003227477  0.168030021821322  1.0000
  H   H6        1.0  0.4530740104515347  0.2156916096681192  0.19215291533839562  1.0000
  H   H7        1.0  0.5571536567241558  0.43595006555344495  0.5603533354018313  1.0000
  H   H8        1.0  0.558095492067909  0.5901559690160434  0.43658139666324614  1.0000
  C   C14       1.0  0.9908038952562669  0.14232755469445002  0.5531878255612377  1.0000
  C   C15       1.0  0.980218710993827  0.2258754989489171  0.4346502234338108  1.0000
  C   C16       1.0  0.9776687535297981  0.1610445072581532  0.31707629343752514  1.0000
  C   C17       1.0  0.9863068609521838  0.011147873090060711  0.31512262739254115  1.0000
  C   C18       1.0  0.9946934466703452  0.9261250427214327  0.4328944599949165  1.0000
  C   C19       1.0  0.9959887622688466  0.9894142645091522  0.5525757218329517  1.0000
  C   C20       1.0  0.9823353603158442  0.9412629760602406  0.18847041385946955  1.0000
  C   C21       1.0  0.897335366144526  0.903474758969822  0.16077915011867905  1.0000
  N   N3        1.0  0.8302466829701158  0.8736479756328926  0.13893161373994903  1.0000
  H   H9        1.0  0.06149251454171556  0.21953121532866063  0.8516149480977107  1.0000
  H   H10       1.0  0.9756900111013175  0.3425558012855243  0.4325856735170236  1.0000
  H   H11       1.0  0.9697210737885579  0.22811405834392207  0.2271893722162026  1.0000
  H   H12       1.0  0.9982308613181554  0.8095888426243202  0.43113515535388625  1.0000
  H   H13       1.0  0.04039270862260658  0.6912455534666887  0.7553014306017798  1.0000
  H   H14       1.0  0.020185277928017817  0.8416395163519422  0.19297465605790134  1.0000
  H   H15       1.0  0.006531659171826966  0.01578413267115608  0.10732155086602083  1.0000
  C   C22       1.0  0.9934039430335484  0.5660172699902426  0.17152883475613523  1.0000
  C   C23       1.0  0.909768750048114  0.6012580486383148  0.16921997022484692  1.0000
  C   C24       1.0  0.867883996897095  0.6209611467280807  0.05063712686004052  1.0000
  C   C25       1.0  0.9097750178860631  0.600929100132499  0.9340861348609004  1.0000
  C   C26       1.0  0.9933887335215219  0.5657244554575924  0.9342347253425207  1.0000
  C   C27       1.0  0.03483467783636396  0.5489910222062819  0.053464426371639964  1.0000
  N   N4        1.0  0.7819546333424505  0.6548219567099559  0.046818168821964885  1.0000
  C   C28       1.0  0.7418360608995626  0.7451513741690203  0.13476537708629843  1.0000
  O   O1        1.0  0.7829723080607996  0.8217500765802426  0.2064123160873006  1.0000
  C   C29       1.0  0.6505780447139787  0.7569811189643383  0.13490314908213197  1.0000
  H   H16       1.0  0.8768436802699263  0.6105560457518111  0.25981096076673543  1.0000
  H   H17       1.0  0.8768140683988445  0.6141844228734803  0.8431627028385541  1.0000
  H   H18       1.0  0.09934518028176731  0.5218498628866852  0.05443348735193254  1.0000
  H   H19       1.0  0.7475059983564396  0.6193106097550231  0.9703588316570629  1.0000
  H   H20       1.0  0.6227149756378478  0.6495572521295541  0.12297996311880088  1.0000
  H   H21       1.0  0.6283671243564031  0.7958073703197137  0.22822957722377815  1.0000
  H   H22       1.0  0.6313665128422022  0.8343286825030165  0.05325610836362961  1.0000
  Zn  Zn1       1.0  0.9036291248701748  0.5670731175134878  0.554120085973563  1.0000
  Zn  Zn2       1.0  0.08315567874162588  0.5646680689516428  0.551642954315924  1.0000
  C   C30       1.0  0.9933545900432184  0.5600339732278814  0.7900711321522096  1.0000
  C   C31       1.0  0.9934321851294095  0.5717090067785804  0.31569200723312113  1.0000
  C   C32       1.0  0.9950045940201475  0.8292988518473053  0.5475165106845106  1.0000
  C   C33       1.0  0.9917821092846281  0.302442396078922  0.558246700034031  1.0000
  O   O2        1.0  0.06157101650398888  0.5727002098634704  0.3631344308558522  1.0000
  O   O3        1.0  0.061472252442900104  0.5572163059958335  0.7407482498741607  1.0000
  O   O4        1.0  0.0628037330776614  0.7746511125855376  0.544883688513708  1.0000
  O   O5        1.0  0.060239474674073756  0.3552654144495564  0.5589988956835397  1.0000
  O   O6        1.0  0.926545267674135  0.776475772837872  0.5467641454444387  1.0000
  O   O7        1.0  0.9252137976436338  0.5590426991507  0.7426286363101722  1.0000
  O   O8        1.0  0.9253125614827546  0.574526553355585  0.36501325599219203  1.0000
  O   O9        1.0  0.923981019584401  0.3570917475881785  0.5608778181911365  1.0000
