data_image0
_chemical_formula_structural       NC5NC4H6C6NH7C6NCOH5Zn2C4O8
_chemical_formula_sum              "N4 C26 H18 O9 Zn2"
_cell_length_a       13.854160002989762
_cell_length_b       9.274771166103582
_cell_length_c       9.273733555595832
_cell_angle_alpha    86.06900368676713
_cell_angle_beta     90.01106291040419
_cell_angle_gamma    90.59704847255895

_space_group_name_H-M_alt    "P 1"
_space_group_IT_number       1

loop_
  _space_group_symop_operation_xyz
  'x, y, z'

loop_
  _atom_site_type_symbol
  _atom_site_label
  _atom_site_symmetry_multiplicity
  _atom_site_fract_x
  _atom_site_fract_y
  _atom_site_fract_z
  _atom_site_occupancy
  N   N1        1.0  0.9195962898127525  0.5615582699666493  0.4074063587007164  1.0000
  C   C1        1.0  0.8474274575987167  0.5861407457164547  0.34832876251385403  1.0000
  C   C2        1.0  0.7576484164025329  0.6167220052252775  0.2748339713092932  1.0000
  C   C3        1.0  0.6698861396808447  0.588003523513354  0.3465930171689593  1.0000
  C   C4        1.0  0.5825060041265283  0.6167220193084573  0.2748339481163662  1.0000
  C   C5        1.0  0.4923193152252015  0.5861405993551585  0.34832885438158967  1.0000
  N   N2        1.0  0.419822718771898  0.5615582064578608  0.4074063587299233  1.0000
  C   C6        1.0  0.5829250142498309  0.6747656946771845  0.1313337169067261  1.0000
  C   C7        1.0  0.6706695383093412  0.7056335605783737  0.05946733483422605  1.0000
  C   C8        1.0  0.671055238465363  0.7637951018978497  0.9044805429302833  1.0000
  C   C9        1.0  0.7580021032578285  0.674765692382665  0.1313336266535301  1.0000
  H   H1        1.0  0.6695863621829322  0.5429675348407381  0.4576597641235989  1.0000
  H   H2        1.0  0.5151926905025264  0.6959586177533474  0.07565832994625897  1.0000
  H   H3        1.0  0.7363802017674872  0.8317121511218787  0.8805755118678191  1.0000
  H   H4        1.0  0.6066717241351905  0.8317121536976204  0.8805755769329274  1.0000
  H   H5        1.0  0.6704090985937027  0.6724871700696131  0.8331094538087269  1.0000
  H   H6        1.0  0.8260156503518757  0.6959587293393833  0.07565824433609335  1.0000
  C   C10       1.0  0.16675093162020604  0.1379701187366359  0.40819192686170425  1.0000
  C   C11       1.0  0.14451336084858424  0.21989490105837287  0.2793110395311881  1.0000
  C   C12       1.0  0.1312875963878881  0.15345276428937885  0.149612459474193  1.0000
  C   C13       1.0  0.1403498122047031  0.0036982843491797372  0.14785534782555484  1.0000
  C   C14       1.0  0.16080214745083113  0.9204350624541638  0.27496578847752357  1.0000
  C   C15       1.0  0.17267725937704315  0.9851354199896425  0.4066333403649871  1.0000
  N   N3        1.0  0.10964276521547855  0.23846183385156297  0.019315096570772013  1.0000
  H   H7        1.0  0.27544406926446197  0.22101742506848246  0.723603112338888  1.0000
  H   H8        1.0  0.13964644469281584  0.3364816649740081  0.2787574327438418  1.0000
  H   H9        1.0  0.13063075923606826  0.9511394801670785  0.0480653758261953  1.0000
  H   H10       1.0  0.16505506629628575  0.8042267234967747  0.2708382542193728  1.0000
  H   H11       1.0  0.24197474550156167  0.6903734611041674  0.621224623061714  1.0000
  H   H12       1.0  0.10299244893696269  0.35053523333398756  0.019268286137666506  1.0000
  H   H13       1.0  0.10001506741638799  0.18994568875434054  0.9218952551287267  1.0000
  C   C16       1.0  0.16962706457881738  0.5570080731423452  0.9841939747347748  1.0000
  C   C17       1.0  0.08085488408324167  0.5487289120719661  0.058160667362889384  1.0000
  C   C18       1.0  0.9930422792854724  0.5521394107031393  0.9832049058716267  1.0000
  C   C19       1.0  0.9940089267546406  0.5685178435849445  0.8318270378530769  1.0000
  C   C20       1.0  0.08131468535573225  0.5746445637946584  0.7566603127343061  1.0000
  C   C21       1.0  0.1698011081392374  0.5660974079050463  0.8306312846147308  1.0000
  N   N4        1.0  0.9040065494966839  0.547080230455842  0.0632286976726999  1.0000
  C   C22       1.0  0.8165807226670015  0.4806563035639995  0.016568480606818696  1.0000
  O   O1        1.0  0.8155391567432303  0.4043202565300686  0.9093580928150459  1.0000
  H   H14       1.0  0.39778187709641144  0.6571682557708598  0.08032315097192622  1.0000
  H   H15       1.0  0.9274147490813031  0.578121832035978  0.7711947541642123  1.0000
  H   H16       1.0  0.3241856916394499  0.6274602370391831  0.5454121531895599  1.0000
  H   H17       1.0  0.9039291727431843  0.5854339024540596  0.16657713244256886  1.0000
  H   H18       1.0  0.7506927933145553  0.4927535491804266  0.0769670631603161  1.0000
  Zn  Zn1       1.0  0.06395081197547525  0.5615544792190645  0.4074146974007505  1.0000
  Zn  Zn2       1.0  0.2754681176446496  0.5615503204793653  0.4074098779280286  1.0000
  C   C23       1.0  0.1697258595361577  0.5586329165917744  0.6706470622204745  1.0000
  C   C24       1.0  0.16969539260735192  0.5644737046023967  0.14417765116124626  1.0000
  C   C25       1.0  0.17155089632758663  0.8249414427394917  0.4011848495627002  1.0000
  C   C26       1.0  0.16787027153226708  0.29816344624607827  0.41363994384567815  1.0000
  O   O2        1.0  0.24998799526546045  0.5669713675351611  0.19786781705193612  1.0000
  O   O3        1.0  0.24996999000600548  0.5561310046345698  0.6169528255933088  1.0000
  O   O4        1.0  0.25144264852981  0.771178523543257  0.39936017964752984  1.0000
  O   O5        1.0  0.2485152646150921  0.351923857786195  0.41546035492024425  1.0000
  O   O6        1.0  0.09090359282456673  0.7711809419151432  0.3993642204025959  1.0000
  O   O7        1.0  0.08943094640395219  0.5561351552179643  0.6169567863157792  1.0000
  O   O8        1.0  0.08944895101967698  0.5669754492457318  0.19787004512503037  1.0000
  O   O9        1.0  0.08797622031540664  0.3519279303399523  0.41546269106487077  1.0000
