data_image0
_chemical_formula_structural       NC12NC2H8C12SCH12C13F3H9Zn2C4O8
_chemical_formula_sum              "N2 C44 H29 S1 F3 Zn2 O8"
_cell_length_a       17.80743265337812
_cell_length_b       10.299776766347529
_cell_length_c       10.2985328690268
_cell_angle_alpha    85.58005012136333
_cell_angle_beta     91.53993439614001
_cell_angle_gamma    89.41689066054833

_space_group_name_H-M_alt    "P 1"
_space_group_IT_number       1

loop_
  _space_group_symop_operation_xyz
  'x, y, z'

loop_
  _atom_site_type_symbol
  _atom_site_label
  _atom_site_symmetry_multiplicity
  _atom_site_fract_x
  _atom_site_fract_y
  _atom_site_fract_z
  _atom_site_occupancy
  N   N1        1.0  0.7070712604721433  0.40619167925202393  0.6012920158696664  1.0000
  C   C1        1.0  0.6562415675666458  0.43572652657246475  0.5325900094095062  1.0000
  C   C2        1.0  0.5930044157589978  0.4724657340414362  0.44713336183845476  1.0000
  C   C3        1.0  0.6047129715225732  0.5264422731632434  0.32050756982360257  1.0000
  C   C4        1.0  0.5433836061260738  0.5616787285514526  0.23744700261146742  1.0000
  C   C5        1.0  0.4701912907882769  0.5432018793311095  0.2803522931855771  1.0000
  C   C6        1.0  0.45750601371922694  0.48910670006499335  0.407446252819124  1.0000
  C   C7        1.0  0.5196926935504763  0.45387349283957  0.4904903074258835  1.0000
  C   C8        1.0  0.37974588175847807  0.469516720756858  0.4532119768288263  1.0000
  C   C9        1.0  0.36096326457726463  0.4967470575143398  0.5802652187582911  1.0000
  C   C10       1.0  0.2877409981251634  0.47831179547245206  0.6232110762358666  1.0000
  C   C11       1.0  0.23235848302047626  0.43239221753047286  0.5399417036483961  1.0000
  C   C12       1.0  0.1569998088132783  0.41340461985211774  0.5842885566013698  1.0000
  N   N2        1.0  0.0964167713626469  0.3981398683011714  0.6199403756072929  1.0000
  C   C13       1.0  0.2504496751505972  0.40499315798924124  0.4134314592311274  1.0000
  C   C14       1.0  0.3236190665797787  0.42344311641486265  0.37022969927097216  1.0000
  H   H1        1.0  0.6611735385374956  0.5412539782093868  0.2860689431232106  1.0000
  H   H2        1.0  0.5525671738355861  0.6037415432665849  0.13966330050425158  1.0000
  H   H3        1.0  0.4235419436651209  0.5728144163343714  0.2147584294457967  1.0000
  H   H4        1.0  0.5112077657185264  0.41042533365850997  0.5881495083972021  1.0000
  H   H5        1.0  0.4026369683272232  0.5339489506295028  0.6458437078056039  1.0000
  H   H6        1.0  0.2743000437488547  0.5001913435876808  0.7212268398555898  1.0000
  H   H7        1.0  0.2080588775788364  0.36905868385906504  0.34826599418532544  1.0000
  H   H8        1.0  0.33653194096053685  0.40002813483675465  0.27251723715320564  1.0000
  C   C15       1.0  0.9018184478316013  0.02079910780851725  0.6106181463756234  1.0000
  C   C16       1.0  0.9063406075969616  0.009186695132325636  0.7473580567630345  1.0000
  C   C17       1.0  0.9085596911080123  0.8861654697016551  0.8166471523092977  1.0000
  C   C18       1.0  0.906196955345086  0.773901894292064  0.7473663676887374  1.0000
  C   C19       1.0  0.901676801993912  0.7835223177289505  0.6106258039678991  1.0000
  C   C20       1.0  0.8995124282846734  0.9074094982668099  0.5430171085424418  1.0000
  C   C21       1.0  0.9133353466995912  0.8749449246976996  0.9613021524658405  1.0000
  C   C22       1.0  0.8703429769790008  0.7823968462472052  0.03329076358253568  1.0000
  C   C23       1.0  0.8748599904656731  0.7720709885108202  0.16942579671225383  1.0000
  C   C24       1.0  0.9221821640135327  0.8540190798423342  0.23537004899374492  1.0000
  C   C25       1.0  0.9653538931727148  0.9459900935265703  0.1647631881579352  1.0000
  C   C26       1.0  0.9609470400108432  0.9566635586051013  0.028623015609449128  1.0000
  S   S1        1.0  0.9280609593242122  0.8403073327858682  0.410053994140278  1.0000
  C   C27       1.0  0.8525693633030352  0.9579364781862453  0.4259682668533338  1.0000
  H   H9        1.0  0.9001248557864227  0.3526768348999634  0.558515449017001  1.0000
  H   H10       1.0  0.9071114980428545  0.09601846486410226  0.800356965442801  1.0000
  H   H11       1.0  0.9089266933912995  0.6788482851883731  0.8002629485693911  1.0000
  H   H12       1.0  0.8960242879593756  0.9155994819820185  0.437528106440358  1.0000
  H   H13       1.0  0.8999169115401372  0.45973514320382464  0.5585245972279298  1.0000
  H   H14       1.0  0.8325217399779162  0.7192001259638237  0.9843618762967279  1.0000
  H   H15       1.0  0.8412746460097621  0.7007207710540908  0.22354251523399524  1.0000
  H   H16       1.0  0.002375649050276655  0.009259722221628403  0.21524282718787457  1.0000
  H   H17       1.0  0.9954806534514559  0.027625658847671774  0.9759648561446957  1.0000
  H   H18       1.0  0.8676059927477205  0.05393986236077031  0.37780743971218644  1.0000
  H   H19       1.0  0.8438700515101393  0.9688288589631628  0.5308381410724717  1.0000
  H   H20       1.0  0.7997027455115684  0.9234840362956085  0.3813111417798856  1.0000
  C   C28       1.0  0.9017260428031343  0.4020392183947077  0.22922344551098248  1.0000
  C   C29       1.0  0.9770655676345866  0.35959023380400823  0.23504428922414508  1.0000
  C   C30       1.0  0.01524064719082552  0.3381996810366905  0.1208229001339367  1.0000
  C   C31       1.0  0.9771098718161906  0.35984493169901954  0.9997457395544912  1.0000
  C   C32       1.0  0.9017691785061879  0.4022822357426077  0.9920204904299083  1.0000
  C   C33       1.0  0.8645584033588729  0.42310320129557377  0.10727975330928019  1.0000
  C   C34       1.0  0.09489246349572378  0.29333316888640826  0.1279113562706646  1.0000
  C   C35       1.0  0.1467565879747168  0.34686049082330817  0.03885484000666838  1.0000
  C   C36       1.0  0.22171960670350543  0.30473720784208713  0.04554751475758234  1.0000
  C   C37       1.0  0.24618290768152115  0.20683623347258528  0.14018888877366062  1.0000
  C   C38       1.0  0.19475331756175884  0.15511895141264342  0.23084357906324415  1.0000
  C   C39       1.0  0.11979518305027193  0.19727518801392918  0.22426205985529665  1.0000
  C   C40       1.0  0.32764315410253525  0.164865482048961  0.15037332164080253  1.0000
  F   F1        1.0  0.3661563458149675  0.24338275601044357  0.23170415363589253  1.0000
  F   F2        1.0  0.35963552566772883  0.17537692101416624  0.02904864897929338  1.0000
  F   F3        1.0  0.33462439910033415  0.036601331164061834  0.2005913673616  1.0000
  H   H21       1.0  0.7595054005676288  0.4830675718453579  0.4254930108826377  1.0000
  H   H22       1.0  0.006488561806698324  0.3448223615783421  0.3285322867891065  1.0000
  H   H23       1.0  0.005965377672054513  0.34186684998214556  0.9114968129677192  1.0000
  H   H24       1.0  0.8064924976981833  0.45581422900230106  0.10206037802852873  1.0000
  H   H25       1.0  0.7592650672399845  0.4817329324308417  0.7701472029689026  1.0000
  H   H26       1.0  0.12962281175115797  0.4229782878522586  0.9653063362976754  1.0000
  H   H27       1.0  0.26066021679900686  0.3491577207473355  0.9769282085341238  1.0000
  H   H28       1.0  0.21248717998075928  0.08188024976368745  0.3068637576048774  1.0000
  H   H29       1.0  0.08112498450606664  0.1538030996857227  0.29391401292919395  1.0000
  Zn  Zn1       1.0  0.8194279689953552  0.4038646356664721  0.6066810171420438  1.0000
  Zn  Zn2       1.0  0.9840600629122949  0.4004563218666235  0.6145619681021954  1.0000
  C   C41       1.0  0.9017603118625316  0.39706267100247383  0.847835375773081  1.0000
  C   C42       1.0  0.9017295175253136  0.4072598879621885  0.37340782302364417  1.0000
  C   C43       1.0  0.9016993963472065  0.6393498331263827  0.6054485788832777  1.0000
  C   C44       1.0  0.9017903771569419  0.16497116673024717  0.6157946864526167  1.0000
  O   O1        1.0  0.9642077063802948  0.4077128893289419  0.4247881970181955  1.0000
  O   O2        1.0  0.9642340731239901  0.3940218584889903  0.8024360873196323  1.0000
  O   O3        1.0  0.9641840409312232  0.5896718239097838  0.6067069936001036  1.0000
  O   O4        1.0  0.9642576823880473  0.21206293433031823  0.6205171906663558  1.0000
  O   O5        1.0  0.839230293338748  0.592258024367279  0.60072579188167  1.0000
  O   O6        1.0  0.8392803252343576  0.39660961921901916  0.7964548163658156  1.0000
  O   O7        1.0  0.8392539584607236  0.4103006043048072  0.4188053645444298  1.0000
  O   O8        1.0  0.8393039344726364  0.21465064004851508  0.6145344555677457  1.0000
