data_image0
_chemical_formula_structural       NC11NC3H8C12ClH9C12NCOH11Zn2C4O8
_chemical_formula_sum              "N3 C43 H28 Cl1 O9 Zn2"
_cell_length_a       17.807433833752565
_cell_length_b       10.299768534541528
_cell_length_c       10.299148425239203
_cell_angle_alpha    85.5385229165027
_cell_angle_beta     88.51012908396928
_cell_angle_gamma    90.7030232555817

_space_group_name_H-M_alt    "P 1"
_space_group_IT_number       1

loop_
  _space_group_symop_operation_xyz
  'x, y, z'

loop_
  _atom_site_type_symbol
  _atom_site_label
  _atom_site_symmetry_multiplicity
  _atom_site_fract_x
  _atom_site_fract_y
  _atom_site_fract_z
  _atom_site_occupancy
  N   N1        1.0  0.707895619478134  0.43907349870877616  0.5345858811400592  1.0000
  C   C1        1.0  0.6570599126504283  0.4043194322288782  0.6011521253293097  1.0000
  C   C2        1.0  0.5938151695116333  0.36108823950042357  0.683952038276469  1.0000
  C   C3        1.0  0.605512452139048  0.29748761495474724  0.8066776498704686  1.0000
  C   C4        1.0  0.5441757499300905  0.25593713179988353  0.8871935125393238  1.0000
  C   C5        1.0  0.4709872651204625  0.27767374126764716  0.8456245972943609  1.0000
  C   C6        1.0  0.45831328549280387  0.3414291069055726  0.7224387595450132  1.0000
  C   C7        1.0  0.380557237294366  0.3644969787342747  0.6780890279855591  1.0000
  C   C8        1.0  0.3617895550924955  0.3476785841576284  0.5484989470601274  1.0000
  C   C9        1.0  0.2885711270304683  0.3693764841959546  0.5068859561482453  1.0000
  C   C10       1.0  0.2331774871274306  0.4082116439144201  0.5940427213481849  1.0000
  C   C11       1.0  0.15782266013493554  0.43056856828052403  0.551068355304227  1.0000
  N   N2        1.0  0.09724275190706412  0.44854187456160977  0.5165200926698712  1.0000
  C   C12       1.0  0.2512537230416332  0.4252408340057361  0.7231016354917363  1.0000
  C   C13       1.0  0.324419345361986  0.40350789837708173  0.7649700731412457  1.0000
  C   C14       1.0  0.5205072963261504  0.3829750183604892  0.6419393137648883  1.0000
  H   H1        1.0  0.6619701007090422  0.28005944662165977  0.8400451386734321  1.0000
  H   H2        1.0  0.5533507272706247  0.2064459820488234  0.9819351861290918  1.0000
  H   H3        1.0  0.4243322522899342  0.2430916952600078  0.9090673380561933  1.0000
  H   H4        1.0  0.40347211440701364  0.31606550289694574  0.47977670429393027  1.0000
  H   H5        1.0  0.2751417575129795  0.35553733625896006  0.40684391053275193  1.0000
  H   H6        1.0  0.20885422833672201  0.45563111268121426  0.7913090417664161  1.0000
  H   H7        1.0  0.3373205967986598  0.4188925176060956  0.8648293906134172  1.0000
  H   H8        1.0  0.5120310154785183  0.4338284115228588  0.5474320076588242  1.0000
  C   C15       1.0  0.9025019187989306  0.062440655856732974  0.5255539623024994  1.0000
  C   C16       1.0  0.9074702144990773  0.07218413953220049  0.3888450598432076  1.0000
  C   C17       1.0  0.9100599129734877  0.9599836262760726  0.31957760989819395  1.0000
  C   C18       1.0  0.9076136983873512  0.8368999049400543  0.3888538931690837  1.0000
  C   C19       1.0  0.9026436353437405  0.8251648492736702  0.5255628155797234  1.0000
  C   C20       1.0  0.9001161314407355  0.938493348260033  0.5931472535710307  1.0000
  C   C21       1.0  0.9153169545454748  0.9713451118485616  0.17495094135813516  1.0000
  C   C22       1.0  0.8725882103024089  0.06387716958044232  0.10246461268056817  1.0000
  C   C23       1.0  0.8776032239377543  0.07437675313260739  0.9663427615703037  1.0000
  C   C24       1.0  0.9252746833900549  0.9928653617389391  0.9010186188863685  1.0000
  C   C25       1.0  0.9679913407331479  0.9006458852995536  0.9719941832849602  1.0000
  C   C26       1.0  0.9631097392580736  0.8897572887891447  0.108124488301786  1.0000
  Cl  Cl1       1.0  0.9314830552360918  0.006282659226467543  0.7302337507451417  1.0000
  H   H9        1.0  0.9005702066320613  0.38618072319327645  0.5776453190585145  1.0000
  H   H10       1.0  0.910374506565244  0.16728914740778889  0.3359740603258401  1.0000
  H   H11       1.0  0.9085574385094791  0.7501111686155115  0.33586029387874916  1.0000
  H   H12       1.0  0.8962825591591387  0.9302084919051714  0.6986119140252498  1.0000
  H   H13       1.0  0.9007797205056627  0.49324022324333416  0.5776588280381276  1.0000
  H   H14       1.0  0.8345961206260577  0.1269096647039727  0.15097416070017267  1.0000
  H   H15       1.0  0.8442556353121655  0.14570312714774203  0.9117744581372863  1.0000
  H   H16       1.0  0.005145841544065276  0.837547111317525  0.9218339047747133  1.0000
  H   H17       1.0  0.997410874994687  0.8187480364925162  0.1611541382378623  1.0000
  C   C27       1.0  0.9026293088870581  0.4439599870855054  0.14415957882050345  1.0000
  C   C28       1.0  0.9788590666633197  0.4813723579967034  0.1366537828846841  1.0000
  C   C29       1.0  0.017389775342641745  0.5001241084550003  0.01572158483062092  1.0000
  C   C30       1.0  0.9787006284523541  0.4810283577484439  0.9014039725762699  1.0000
  C   C31       1.0  0.9025162280990559  0.44364556327055515  0.9069572083360691  1.0000
  C   C32       1.0  0.864927518370439  0.42532158554003013  0.028820090720939048  1.0000
  C   C33       1.0  0.09798631083713594  0.5396765384833984  0.008876121766682177  1.0000
  C   C34       1.0  0.14845793127888807  0.4835335316775805  0.9229350164686249  1.0000
  C   C35       1.0  0.22426290506892665  0.5208900222436037  0.9166442446261608  1.0000
  C   C36       1.0  0.2513708965685575  0.6138213450400573  0.9968972829623208  1.0000
  C   C37       1.0  0.20082506165836755  0.6718087451980496  0.08127347263442264  1.0000
  C   C38       1.0  0.12498615648863831  0.6345580970203287  0.08766266231076747  1.0000
  N   N3        1.0  0.32939975952891004  0.6519255253942654  0.9867420531935259  1.0000
  C   C39       1.0  0.3726201193442318  0.6896492727702115  0.09346745642447174  1.0000
  O   O1        1.0  0.34719753546317955  0.674868620752027  0.2090069614256811  1.0000
  H   H18       1.0  0.7588687824512977  0.3725850063726889  0.36567371395389614  1.0000
  H   H19       1.0  0.008668208462075276  0.4942925758174269  0.22519728053972377  1.0000
  H   H20       1.0  0.007852348257508135  0.49712882210129694  0.8078187378429945  1.0000
  H   H21       1.0  0.8061654640284637  0.3964837877598326  0.033818495032454716  1.0000
  H   H22       1.0  0.8732158583644695  0.42923089286711963  0.5816198914414432  1.0000
  H   H23       1.0  0.12950326900844744  0.4095635018706188  0.861640183249074  1.0000
  H   H24       1.0  0.26221443689798796  0.4762754384793704  0.8499274437249307  1.0000
  H   H25       1.0  0.21935380005162908  0.747932934436913  0.14018150413521147  1.0000
  H   H26       1.0  0.08712376782879394  0.6818410766920243  0.15248280697779704  1.0000
  H   H27       1.0  0.3582924236913094  0.6436889213710535  0.8982181684847399  1.0000
  H   H28       1.0  0.42903670663507154  0.7280606638145926  0.07502658797864648  1.0000
  Zn  Zn1       1.0  0.8202527895798452  0.4418023897439902  0.5293799698955406  1.0000
  Zn  Zn2       1.0  0.9848855635024212  0.44580235962086645  0.521736590634511  1.0000
  C   C40       1.0  0.9025349720842145  0.43853129976749095  0.7627721698593626  1.0000
  C   C41       1.0  0.9026051790683702  0.4490751318361952  0.2883444347007946  1.0000
  C   C42       1.0  0.9026137418328839  0.6809958156509134  0.5203857811697921  1.0000
  C   C43       1.0  0.9025263528418854  0.20660905426412451  0.5307308952243734  1.0000
  O   O2        1.0  0.9650743595408451  0.45230412314960466  0.3338335668172836  1.0000
  O   O3        1.0  0.9650182575492878  0.438337213473873  0.7114815158527157  1.0000
  O   O4        1.0  0.9650810226937173  0.6341303554124524  0.5157528311800754  1.0000
  O   O5        1.0  0.9650115382345632  0.25651098917642545  0.5295621567158932  1.0000
  O   O6        1.0  0.8401267586666182  0.6310937588248545  0.5215544064156374  1.0000
  O   O7        1.0  0.8400639938189192  0.4353021772113451  0.7172830218557482  1.0000
  O   O8        1.0  0.8401200960835032  0.44926904227620046  0.3396335112942912  1.0000
  O   O9        1.0  0.840057274757989  0.2534758989740442  0.5353621985684105  1.0000
