data_image0
_chemical_formula_structural       NC6NC3H6C6BrH5C6OCH6Zn2C4O8
_chemical_formula_sum              "N2 C26 H17 Br1 O9 Zn2"
_cell_length_a       14.934028789175542
_cell_length_b       9.276564384272257
_cell_length_c       9.27389158865715
_cell_angle_alpha    86.03089208269444
_cell_angle_beta     89.65557739525336
_cell_angle_gamma    90.54840447220178

_space_group_name_H-M_alt    "P 1"
_space_group_IT_number       1

loop_
  _space_group_symop_operation_xyz
  'x, y, z'

loop_
  _atom_site_type_symbol
  _atom_site_label
  _atom_site_symmetry_multiplicity
  _atom_site_fract_x
  _atom_site_fract_y
  _atom_site_fract_z
  _atom_site_occupancy
  N   N1        1.0  0.8586334436080845  0.563002847589722  0.4082272559569969  1.0000
  C   C1        1.0  0.7811427070893764  0.5618986133564026  0.40754940136395157  1.0000
  C   C2        1.0  0.6847403033363407  0.5605198706197492  0.40670322625781274  1.0000
  C   C3        1.0  0.6374350054212017  0.6678963104560875  0.47249691159495183  1.0000
  C   C4        1.0  0.5439185664054685  0.6667892852373067  0.47181846552374573  1.0000
  C   C5        1.0  0.49679510893073686  0.558360619158939  0.4053801109694968  1.0000
  C   C6        1.0  0.4001592442868296  0.5606870773594588  0.40680690739449643  1.0000
  N   N2        1.0  0.3226869830362209  0.5625334182156139  0.4079395785646828  1.0000
  C   C7        1.0  0.5440885118516835  0.4494986447570572  0.3386756295164115  1.0000
  C   C8        1.0  0.4952702471873126  0.3316141571349738  0.2664445585328914  1.0000
  C   C9        1.0  0.6382408297370347  0.4517352821404917  0.34004615558993334  1.0000
  H   H1        1.0  0.6728395616178952  0.7524989901549495  0.5243368219860478  1.0000
  H   H2        1.0  0.5082404032019724  0.7507404003293818  0.5232589937537584  1.0000
  H   H3        1.0  0.4531344779800679  0.37988262267718675  0.17780257059275284  1.0000
  H   H4        1.0  0.4518530733811896  0.2694940156280812  0.34660572175013016  1.0000
  H   H5        1.0  0.5424039455921662  0.25525861061910327  0.21965214926931242  1.0000
  H   H6        1.0  0.6754168077947639  0.36890096970658814  0.28929022502016394  1.0000
  C   C10       1.0  0.08796545561748069  0.13929320990519686  0.4084536673152129  1.0000
  C   C11       1.0  0.0769394494241768  0.2216149532759275  0.27672151698535324  1.0000
  C   C12       1.0  0.07424260931160953  0.15545121609377266  0.1462147107542873  1.0000
  C   C13       1.0  0.08256032620382392  0.00602438406189809  0.14496197516763454  1.0000
  C   C14       1.0  0.09201565806354559  0.921992925421078  0.2747029833461383  1.0000
  C   C15       1.0  0.09336346549157842  0.9862320121519766  0.40772557030870504  1.0000
  Br  Br1       1.0  0.07953116675904302  0.9160538062533459  0.9658834185589199  1.0000
  H   H7        1.0  0.060909269680555087  0.4039874259065164  0.6428062369002547  1.0000
  H   H8        1.0  0.0725289716572774  0.3382535419511461  0.2742566322742238  1.0000
  H   H9        1.0  0.0665382704189099  0.22077330825594418  0.04581824226915665  1.0000
  H   H10       1.0  0.09616928776472705  0.8057207006806019  0.27159279589280905  1.0000
  H   H11       1.0  0.14199446937517557  0.6902757799055469  0.6321877419218265  1.0000
  C   C16       1.0  0.09210702371693102  0.5589419128064224  0.9848166847268542  1.0000
  C   C17       1.0  0.16582507804179758  0.6197775225325239  0.05329256540227911  1.0000
  C   C18       1.0  0.2345326391348329  0.6913865256563017  0.9733788922207421  1.0000
  C   C19       1.0  0.22976850586533204  0.7025210200092824  0.8219317095890305  1.0000
  C   C20       1.0  0.15792609944427827  0.6408103336866469  0.7521132153868892  1.0000
  C   C21       1.0  0.08922187287198599  0.5665832847895491  0.8313625780535515  1.0000
  O   O1        1.0  0.3057939932999376  0.7504490894717297  0.04849072290408185  1.0000
  C   C22       1.0  0.3800142080012281  0.8262679109300277  0.9813033998369574  1.0000
  H   H12       1.0  0.8785570706802963  0.4705862161956369  0.09604209970957345  1.0000
  H   H13       1.0  0.28170100341831433  0.7575355861728998  0.7569302596338928  1.0000
  H   H14       1.0  0.9467723507390591  0.5013790664999249  0.5560641563363253  1.0000
  H   H15       1.0  0.35660010106729567  0.9238784455038643  0.9168388350163146  1.0000
  H   H16       1.0  0.41689380412284205  0.7546603375207146  0.910929109426998  1.0000
  H   H17       1.0  0.4260702098549246  0.8606907870422063  0.06608889851519906  1.0000
  Zn  Zn1       1.0  0.9925492315165809  0.5628635911686071  0.40815255905966374  1.0000
  Zn  Zn2       1.0  0.18877110974202393  0.5626609683475352  0.408026069984129  1.0000
  C   C23       1.0  0.08972863040062884  0.5593940543767666  0.6713522355423145  1.0000
  C   C24       1.0  0.09159386470953021  0.5661323237394618  0.14482653202831153  1.0000
  C   C25       1.0  0.0923580899693847  0.8260907308172644  0.40211942900239156  1.0000
  C   C26       1.0  0.0889643268794289  0.2994339154898568  0.41405941694718645  1.0000
  O   O2        1.0  0.16588678392872847  0.5684623057466134  0.19847930195386154  1.0000
  O   O3        1.0  0.16436357096972032  0.5569091947000948  0.6176030493468895  1.0000
  O   O4        1.0  0.16648588389135133  0.772270148330859  0.40019565255726747  1.0000
  O   O5        1.0  0.1637644044839408  0.3531013615253844  0.41588659070377854  1.0000
  O   O6        1.0  0.01755586981380364  0.7724231980614051  0.4002920383755955  1.0000
  O   O7        1.0  0.015433568192656498  0.5570639763103942  0.6176993568218465  1.0000
  O   O8        1.0  0.016956786797082558  0.56861702146152  0.1985738765077494  1.0000
  O   O9        1.0  0.014834406914590254  0.35325606790140207  0.4159812733329531  1.0000
