data_image0
_chemical_formula_structural       NC8NC6H8C6SCH6C9H8Zn2C4O8
_chemical_formula_sum              "N2 C34 H22 S1 Zn2 O8"
_cell_length_a       17.457602349358154
_cell_length_b       10.302809429070853
_cell_length_c       9.275155815604963
_cell_angle_alpha    86.05280374454347
_cell_angle_beta     93.22066324705655
_cell_angle_gamma    91.68806441137123

_space_group_name_H-M_alt    "P 1"
_space_group_IT_number       1

loop_
  _space_group_symop_operation_xyz
  'x, y, z'

loop_
  _atom_site_type_symbol
  _atom_site_label
  _atom_site_symmetry_multiplicity
  _atom_site_fract_x
  _atom_site_fract_y
  _atom_site_fract_z
  _atom_site_occupancy
  N   N1        1.0  0.7173606764512912  0.44034320848478  0.4752786974116059  1.0000
  C   C1        1.0  0.6562436048876756  0.39433911549462336  0.4634941449479724  1.0000
  C   C2        1.0  0.580211420011313  0.33711582007802954  0.4488447542494107  1.0000
  C   C3        1.0  0.5219589447024229  0.3779218478956509  0.5319889540805189  1.0000
  C   C4        1.0  0.4473671079485248  0.32282154732094254  0.5180216532586814  1.0000
  C   C5        1.0  0.385540039843182  0.36590879410892607  0.606074514263615  1.0000
  C   C6        1.0  0.3107877689592022  0.3838826511947866  0.5441712241905812  1.0000
  C   C7        1.0  0.25253568885528294  0.4245057567036789  0.6274352638393861  1.0000
  C   C8        1.0  0.176337093971177  0.4430658582896456  0.5630725819027413  1.0000
  N   N2        1.0  0.1150863407489667  0.4579818035622383  0.5113251533049996  1.0000
  C   C9        1.0  0.26854559187681004  0.44740252933497504  0.773167100897719  1.0000
  C   C10       1.0  0.3425145878431776  0.42982093659860693  0.8355006651068557  1.0000
  C   C11       1.0  0.4007567506845882  0.38938184232491685  0.7527447436436134  1.0000
  C   C12       1.0  0.43231110904916104  0.226225447296587  0.41931946295962375  1.0000
  C   C13       1.0  0.4905533410501695  0.18570151995340906  0.3366193083370681  1.0000
  C   C14       1.0  0.5643624398627857  0.24091898245492516  0.35119711055248537  1.0000
  H   H1        1.0  0.5345486549240505  0.4536770643504897  0.6059559583118812  1.0000
  H   H2        1.0  0.2980665935464917  0.3680226217267231  0.43091345463685826  1.0000
  H   H3        1.0  0.2239015522313256  0.47879153409248043  0.8384809878221304  1.0000
  H   H4        1.0  0.3547206758869162  0.4472348733329681  0.9483440765608646  1.0000
  H   H5        1.0  0.4574123653524071  0.374798844707078  0.8039276966477382  1.0000
  H   H6        1.0  0.3757871823084174  0.18081052373339945  0.40749481694430423  1.0000
  H   H7        1.0  0.47847302221851495  0.11105191543639091  0.2613220429673886  1.0000
  H   H8        1.0  0.6090084080417463  0.20866502900290174  0.28645062550095113  1.0000
  C   C15       1.0  0.9162272140635084  0.06790928523221448  0.49330852289774896  1.0000
  C   C16       1.0  0.9600778683703162  0.07653474967646211  0.3704669299416054  1.0000
  C   C17       1.0  0.9816853662589268  0.9638368414833692  0.309162459770536  1.0000
  C   C18       1.0  0.9600777713456863  0.8413835868523862  0.37046684369266414  1.0000
  C   C19       1.0  0.9162271834494682  0.8304061451849412  0.4933085125570999  1.0000
  C   C20       1.0  0.8944961891016399  0.9443057521816778  0.5540998777190538  1.0000
  S   S1        1.0  0.03785319704431833  0.9763553683924406  0.15239544800215232  1.0000
  C   C21       1.0  0.9542932338856102  0.9800253154085723  0.025881549796385118  1.0000
  H   H9        1.0  0.977494865716615  0.17052756813932146  0.32167224421319274  1.0000
  H   H10       1.0  0.9774946959888099  0.7551771662532936  0.3216721165202862  1.0000
  H   H11       1.0  0.8606596573756203  0.9367458469199703  0.6488371197353358  1.0000
  H   H12       1.0  0.9191390355536863  0.8891601267437753  0.04191382630094997  1.0000
  H   H13       1.0  0.9191397525238331  0.06539511614378779  0.041913367371991576  1.0000
  H   H14       1.0  0.9737307874208913  0.9879454856079719  0.9137255621157564  1.0000
  C   C22       1.0  0.9148210584129958  0.4458136898924933  0.06994981660575415  1.0000
  C   C23       1.0  0.8547844500699515  0.5064121520418441  0.13232347665940944  1.0000
  C   C24       1.0  0.7998882168377147  0.5758670592766051  0.04606337542374183  1.0000
  C   C25       1.0  0.8040105411702365  0.5861837322406921  0.8958551893685643  1.0000
  C   C26       1.0  0.8625027837783393  0.524819232118672  0.8316331964669312  1.0000
  C   C27       1.0  0.9176333183089981  0.45250168602703605  0.9166671208122698  1.0000
  C   C28       1.0  0.7475630028717648  0.6586030154238982  0.8071418724471633  1.0000
  C   C29       1.0  0.7002983584404093  0.7192443843852124  0.7328301577994001  1.0000
  C   C30       1.0  0.6429512114659843  0.7928224548412115  0.642654026173846  1.0000
  H   H15       1.0  0.09295257357386078  0.34896543044841927  0.19905199270129104  1.0000
  H   H16       1.0  0.8513365555764016  0.5026603563568968  0.24880252735778804  1.0000
  H   H17       1.0  0.7545999325518647  0.6226561910117001  0.09677185817026165  1.0000
  H   H18       1.0  0.863920761634007  0.5309870877446581  0.7146154134668521  1.0000
  H   H19       1.0  0.03648963026277041  0.3825877796996844  0.6538568608830366  1.0000
  H   H20       1.0  0.6585463153981708  0.7972443067256689  0.52806844499138  1.0000
  H   H21       1.0  0.5857933527905307  0.7440556074017481  0.6525000108366852  1.0000
  H   H22       1.0  0.6410089661981102  0.892985481806986  0.6789827162526628  1.0000
  Zn  Zn1       1.0  0.832135739500285  0.44542991011182487  0.485689250006829  1.0000
  Zn  Zn2       1.0  0.0003113026535301908  0.4528845505710054  0.5009264039084537  1.0000
  C   C31       1.0  0.9171000407582285  0.44606535649910567  0.7566193014886764  1.0000
  C   C32       1.0  0.9153488383374098  0.45225082482915874  0.2299966603165733  1.0000
  C   C33       1.0  0.916204153657495  0.686232442801505  0.48756314146561003  1.0000
  C   C34       1.0  0.9162446683069393  0.21208217676010463  0.49905289200238556  1.0000
  O   O1        1.0  0.9793477158639794  0.45723451929645065  0.289492263608937  1.0000
  O   O2        1.0  0.9807425229689708  0.4467385789478577  0.7086879304364799  1.0000
  O   O3        1.0  0.9800182274363379  0.6406765121689242  0.4914230996498481  1.0000
  O   O4        1.0  0.9800719536506561  0.26329659196520283  0.5067569811002746  1.0000
  O   O5        1.0  0.8523750311130678  0.6350178661750785  0.47985866760773205  1.0000
  O   O6        1.0  0.8530993263868131  0.4410814921781172  0.6971234215243423  1.0000
  O   O7        1.0  0.8517045135758555  0.4515773735956334  0.27792602138625794  1.0000
  O   O8        1.0  0.8524287517183974  0.25763943783201754  0.4951908469656141  1.0000
