data_image0
_chemical_formula_structural       NC8NH4C10H5C6FH3Zn2C4O8
_chemical_formula_sum              "N2 C28 H12 F1 Zn2 O8"
_cell_length_a       14.927258825633057
_cell_length_b       9.275150299802176
_cell_length_c       9.275646106892307
_cell_angle_alpha    84.62811981021342
_cell_angle_beta     90.02253336154234
_cell_angle_gamma    89.48389196497259

_space_group_name_H-M_alt    "P 1"
_space_group_IT_number       1

loop_
  _space_group_symop_operation_xyz
  'x, y, z'

loop_
  _atom_site_type_symbol
  _atom_site_label
  _atom_site_symmetry_multiplicity
  _atom_site_fract_x
  _atom_site_fract_y
  _atom_site_fract_z
  _atom_site_occupancy
  N   N1        1.0  0.8342438048543117  0.5961261979820136  0.39889609847210594  1.0000
  C   C1        1.0  0.75671738065787  0.5961261714123247  0.39889610828778044  1.0000
  C   C2        1.0  0.6602847389304934  0.5961261705347138  0.3988961634464643  1.0000
  C   C3        1.0  0.6136998066158549  0.5087185604510092  0.3095359650956502  1.0000
  C   C4        1.0  0.519988495554452  0.508718470871838  0.30953593710246996  1.0000
  C   C5        1.0  0.4724687411978746  0.5961262245450487  0.3988960752067705  1.0000
  C   C6        1.0  0.5190536734255339  0.6835338461024223  0.4882561652810189  1.0000
  C   C7        1.0  0.6127650514784914  0.6835339356785626  0.48825619328014835  1.0000
  C   C8        1.0  0.3760360999844126  0.5961261274555878  0.39889602074802233  1.0000
  N   N2        1.0  0.2985096751870772  0.5961262085714181  0.39889603190456285  1.0000
  H   H1        1.0  0.6497595889099609  0.4407103101633023  0.24000873582911897  1.0000
  H   H2        1.0  0.4846559331893376  0.4407102854382802  0.2400088333277046  1.0000
  H   H3        1.0  0.4829938911314279  0.7515420963901289  0.5577833945475499  1.0000
  H   H4        1.0  0.6480975469390303  0.7515421096414825  0.5577834053255302  1.0000
  C   C9        1.0  0.06874547543271547  0.17239488307761963  0.4013125437883853  1.0000
  C   C10       1.0  0.11582317892241267  0.25561124548086256  0.2921099312488378  1.0000
  C   C11       1.0  0.15521640761672062  0.1906851546073305  0.1773577851386745  1.0000
  C   C12       1.0  0.14793157133544743  0.04159256920420629  0.17033019168692218  1.0000
  C   C13       1.0  0.10280946436016249  0.9569392825290116  0.2788840850724015  1.0000
  C   C14       1.0  0.06401663339261532  0.019846211196637983  0.3964921713913625  1.0000
  C   C15       1.0  0.20230422956835792  0.2776702747933879  0.0656583660862291  1.0000
  C   C16       1.0  0.24172863818398294  0.3505222940252534  0.9721426710605936  1.0000
  C   C17       1.0  0.28789279111371435  0.4358369067850256  0.8626398706062516  1.0000
  C   C18       1.0  0.3273095981619314  0.5086832527402303  0.769142101882037  1.0000
  H   H5        1.0  0.12012811188656401  0.3720358348783306  0.2943398088354121  1.0000
  H   H6        1.0  0.17793446585173345  0.9903941276020616  0.08153614077414861  1.0000
  H   H7        1.0  0.10006787517078286  0.8410056650069945  0.2726523029495389  1.0000
  H   H8        1.0  0.005910408130205053  0.8857188865191673  0.7394429221342322  1.0000
  H   H9        1.0  0.36192084285825854  0.5726485262473222  0.6870433385185962  1.0000
  C   C19       1.0  0.06625160700494921  0.6006368625763947  0.9750362227299996  1.0000
  C   C20       1.0  0.14819248597064227  0.6157178573491608  0.047011288601149566  1.0000
  C   C21       1.0  0.2290985555029763  0.6172501057860631  0.9715567505836956  1.0000
  C   C22       1.0  0.22948544583146213  0.6035834437409799  0.823258233164248  1.0000
  C   C23       1.0  0.14893493298952842  0.590908362378094  0.749337523144701  1.0000
  C   C24       1.0  0.06651049500767475  0.5916042794641623  0.8227684837812514  1.0000
  F   F1        1.0  0.30747670382895986  0.6302774749916664  0.04291785893351596  1.0000
  H   H10       1.0  0.8591786892556346  0.4834077716913816  0.08885595097313015  1.0000
  H   H11       1.0  0.2923022290676984  0.6041870881971412  0.7649394334887263  1.0000
  H   H12       1.0  0.9262863744483087  0.5186142790179713  0.5483379115142779  1.0000
  Zn  Zn1       1.0  0.968220939121925  0.5961222379848323  0.39890444513414325  1.0000
  Zn  Zn2       1.0  0.16453262373354383  0.5961181964961799  0.3988996051877636  1.0000
  C   C25       1.0  0.06649166401411001  0.5875632455035134  0.6625616340434735  1.0000
  C   C26       1.0  0.06626403244289096  0.6046790080606648  0.1352425475401049  1.0000
  C   C27       1.0  0.06490413988452555  0.8597211791025281  0.3916514617269082  1.0000
  C   C28       1.0  0.06785149928219723  0.33251934002270644  0.4061528066734288  1.0000
  O   O1        1.0  0.14076749888340379  0.6060277601970205  0.18900745272182082  1.0000
  O   O2        1.0  0.1409842297978814  0.5862103418483062  0.6087926461412574  1.0000
  O   O3        1.0  0.13970128015898986  0.8059812991653512  0.3900307567518386  1.0000
  O   O4        1.0  0.1420503814437617  0.38625681435667536  0.407769233828724  1.0000
  O   O5        1.0  0.9907031144201525  0.8059836201273676  0.39003481648723315  1.0000
  O   O6        1.0  0.9919860543577674  0.5862143972522971  0.6087966190539431  1.0000
  O   O7        1.0  0.9917693232534117  0.606031783808674  0.189009690527717  1.0000
  O   O8        1.0  0.9930522059007487  0.3862608264946601  0.4077715799111865  1.0000
