data_image0
_chemical_formula_structural       NC6NC3H6C6NCH9C6BrH4Zn2C4O8
_chemical_formula_sum              "N3 C26 H19 Br1 Zn2 O8"
_cell_length_a       14.934028789175542
_cell_length_b       9.273386996610926
_cell_length_c       9.27656775626242
_cell_angle_alpha    86.02760264675325
_cell_angle_beta     90.16168567554362
_cell_angle_gamma    89.3610420342759

_space_group_name_H-M_alt    "P 1"
_space_group_IT_number       1

loop_
  _space_group_symop_operation_xyz
  'x, y, z'

loop_
  _atom_site_type_symbol
  _atom_site_label
  _atom_site_symmetry_multiplicity
  _atom_site_fract_x
  _atom_site_fract_y
  _atom_site_fract_z
  _atom_site_occupancy
  N   N1        1.0  0.8297879135403524  0.5624358023005209  0.40755252845708556  1.0000
  C   C1        1.0  0.7523076787521737  0.561330594314089  0.40687579164450804  1.0000
  C   C2        1.0  0.6559183884706156  0.5599506358990389  0.40603101212673076  1.0000
  C   C3        1.0  0.6075912307284881  0.6674216715949539  0.47171604693413843  1.0000
  C   C4        1.0  0.5140853261342397  0.6663136710172695  0.4710387210696061  1.0000
  C   C5        1.0  0.46799374250017023  0.5577894821489506  0.4047100817316325  1.0000
  C   C6        1.0  0.3713357449041252  0.5601179908792433  0.40613452363618885  1.0000
  N   N2        1.0  0.2938459201265956  0.5619659593408715  0.4072653260784209  1.0000
  C   C7        1.0  0.5163231394791001  0.4488316027493002  0.3381157541659281  1.0000
  C   C8        1.0  0.46862674277303246  0.3308432629415825  0.2660039659820568  1.0000
  C   C9        1.0  0.6104541724416426  0.4510702105920066  0.33948401704440734  1.0000
  H   H1        1.0  0.6421906593301048  0.7520988845080616  0.5234703505723541  1.0000
  H   H2        1.0  0.477608235236854  0.7503387452027195  0.5223943018935799  1.0000
  H   H3        1.0  0.4253837934145914  0.3790641092712095  0.17735518555157248  1.0000
  H   H4        1.0  0.42644860647145205  0.26875854273631034  0.3461859353658996  1.0000
  H   H5        1.0  0.5164870520354989  0.25442044427242316  0.21928882055626622  1.0000
  H   H6        1.0  0.6484184516036292  0.3681629231597423  0.28881190372343335  1.0000
  C   C10       1.0  0.06457616748125837  0.13855102562598387  0.4081152516166775  1.0000
  C   C11       1.0  0.08004395544076942  0.22073444132198028  0.27782601345069136  1.0000
  C   C12       1.0  0.08708067206689568  0.1549478260997268  0.14753394018811816  1.0000
  C   C13       1.0  0.07875338571080803  0.004622874392448125  0.1441998865687082  1.0000
  C   C14       1.0  0.064862711588179  0.9214705131112978  0.27403558624804947  1.0000
  C   C15       1.0  0.059066348096675325  0.985839708199162  0.40671508715048676  1.0000
  N   N3        1.0  0.08502787507759191  0.9337742495858332  0.011218366258786364  1.0000
  C   C16       1.0  0.09966972140804618  0.01027821209682589  0.8706026607516923  1.0000
  H   H7        1.0  0.08333295837771802  0.4029946128856008  0.6446603329949567  1.0000
  H   H8        1.0  0.08460767185727232  0.3373583929855575  0.2760554518772329  1.0000
  H   H9        1.0  0.09818154703950038  0.22257971793647102  0.04965452612060295  1.0000
  H   H10       1.0  0.06063174290638051  0.8050514555256496  0.2717651701348005  1.0000
  H   H11       1.0  0.09272233216597064  0.8578823128778924  0.7576351752749753  1.0000
  H   H12       1.0  0.0787031005812513  0.8214428069520215  0.014210141891011436  1.0000
  H   H13       1.0  0.04411006203253498  0.0886627310398689  0.8456023880485208  1.0000
  H   H14       1.0  0.16448207457949993  0.067766615196748  0.8707950538164462  1.0000
  H   H15       1.0  0.10176015345852546  0.9320036981213327  0.7853007161016188  1.0000
  C   C17       1.0  0.06099350856664574  0.5580503320665504  0.9842957833844314  1.0000
  C   C18       1.0  0.9811957169912099  0.5928613012830457  0.054898474746502675  1.0000
  C   C19       1.0  0.9052997308714678  0.6395517376566802  0.9761672376007846  1.0000
  C   C20       1.0  0.9077755329767798  0.6523767732659056  0.8256486115455113  1.0000
  C   C21       1.0  0.9858279864546411  0.6160091520071367  0.7533225197080311  1.0000
  C   C22       1.0  0.06264905494042039  0.5663404666401333  0.8305345453952429  1.0000
  Br  Br1       1.0  0.8038905434961607  0.7174401770370538  0.718355070749968  1.0000
  H   H16       1.0  0.18502997945501087  0.4268895039583738  0.27527027664769443  1.0000
  H   H17       1.0  0.8447521197259344  0.6671188320962655  0.0324765325816303  1.0000
  H   H18       1.0  0.9856391363312715  0.6233786065743023  0.6362599655553067  1.0000
  H   H19       1.0  0.21008022813423347  0.5512942639491083  0.5510732444838022  1.0000
  Zn  Zn1       1.0  0.963705084954722  0.5622964313042746  0.40747796868726205  1.0000
  Zn  Zn2       1.0  0.15992887867115088  0.5620936281978518  0.4073516854690655  1.0000
  C   C23       1.0  0.06237147204217039  0.5590261516280276  0.6705867827236189  1.0000
  C   C24       1.0  0.06126462278101716  0.5653657273322663  0.14424300846644322  1.0000
  C   C25       1.0  0.0600919945137228  0.8256278819525893  0.40123800276861243  1.0000
  C   C26       1.0  0.06354404477360996  0.29876226454181903  0.41359186814744486  1.0000
  O   O1        1.0  0.1358215592027473  0.5677375842069385  0.1978748449177361  1.0000
  O   O2        1.0  0.1367438610075854  0.556499279484086  0.616858687257333  1.0000
  O   O3        1.0  0.134902153170382  0.7717835640748133  0.3993576399234624  1.0000
  O   O4        1.0  0.13766319980360042  0.3524533089472577  0.4153757842428596  1.0000
  O   O5        1.0  0.9859706968606965  0.7719367506255717  0.39945386994898047  1.0000
  O   O6        1.0  0.9878123932721795  0.5566541985714324  0.616954837592369  1.0000
  O   O7        1.0  0.9868900884648075  0.5678924360502564  0.1979692630003984  1.0000
  O   O8        1.0  0.988731729340436  0.35260815153023173  0.41547031036978166  1.0000
