data_image0
_chemical_formula_structural       NC5NC4H6C6ClH5C8H10Zn2C4O8
_chemical_formula_sum              "N2 C27 H21 Cl1 Zn2 O8"
_cell_length_a       13.854160002989762
_cell_length_b       9.276545438789551
_cell_length_c       9.275657083861812
_cell_angle_alpha    85.88220868425292
_cell_angle_beta     89.50283940277347
_cell_angle_gamma    89.40960627284836

_space_group_name_H-M_alt    "P 1"
_space_group_IT_number       1

loop_
  _space_group_symop_operation_xyz
  'x, y, z'

loop_
  _atom_site_type_symbol
  _atom_site_label
  _atom_site_symmetry_multiplicity
  _atom_site_fract_x
  _atom_site_fract_y
  _atom_site_fract_z
  _atom_site_occupancy
  N   N1        1.0  0.907309432065045  0.5698984651664938  0.4108346038454341  1.0000
  C   C1        1.0  0.8351478597337074  0.5948026139933569  0.35180362316390595  1.0000
  C   C2        1.0  0.7453778540168102  0.625784047227721  0.2783668227527132  1.0000
  C   C3        1.0  0.6575909167282151  0.5966744223533362  0.35007200283322093  1.0000
  C   C4        1.0  0.5702354416821022  0.6257840614355497  0.27836679958879507  1.0000
  C   C5        1.0  0.48003971885056007  0.5948024671717101  0.3518037146979085  1.0000
  N   N2        1.0  0.40753586190595914  0.5698984016809541  0.4108346037212152  1.0000
  C   C6        1.0  0.5706952421790062  0.6846096994839017  0.1349757695645748  1.0000
  C   C7        1.0  0.6584352119035994  0.7158685171069814  0.06316842279555425  1.0000
  C   C8        1.0  0.6589278513034859  0.7748762830599882  0.9082886332183479  1.0000
  C   C9        1.0  0.7457723317514791  0.6846096976954941  0.13497567928632082  1.0000
  H   H1        1.0  0.6572611119485795  0.551033248799689  0.4610539613493221  1.0000
  H   H2        1.0  0.5029971712949785  0.706106498507401  0.07933954485600792  1.0000
  H   H3        1.0  0.723450726820269  0.8429021234752128  0.8845425153445211  1.0000
  H   H4        1.0  0.5937422487682349  0.8429021256857503  0.8845425804299197  1.0000
  H   H5        1.0  0.6599708796934769  0.6840015686741201  0.8366815199820219  1.0000
  H   H6        1.0  0.8138201300999529  0.7061066105315752  0.07933945949691436  1.0000
  C   C10       1.0  0.16034177256165846  0.14646206636915385  0.4105969883116196  1.0000
  C   C11       1.0  0.16147555722876744  0.22943033547758307  0.2775425255015869  1.0000
  C   C12       1.0  0.15381108868298707  0.16368261577107268  0.14738401606273688  1.0000
  C   C13       1.0  0.1448251069433062  0.014096062344892466  0.14827751269880365  1.0000
  C   C14       1.0  0.14519460205108117  0.9295768375768975  0.2788897592846953  1.0000
  C   C15       1.0  0.15451279097794868  0.9933237992631281  0.41108472782215255  1.0000
  Cl  Cl1       1.0  0.1540136794144273  0.2694589836241617  0.9828106324861743  1.0000
  H   H7        1.0  0.20839859761547763  0.4105848130197678  0.6372364081248978  1.0000
  H   H8        1.0  0.16601483126934072  0.3461362455688892  0.27468845640749606  1.0000
  H   H9        1.0  0.13847328921633628  0.9628574047595038  0.04757911779999779  1.0000
  H   H10       1.0  0.14049101498871908  0.8133027617079612  0.27623898845720984  1.0000
  H   H11       1.0  0.12080980921465034  0.6957851515337516  0.6441864184469754  1.0000
  C   C16       1.0  0.1599008991964115  0.5677192226371552  0.9875197204151025  1.0000
  C   C17       1.0  0.20914410510647793  0.6776374926940494  0.052523406855173434  1.0000
  C   C18       1.0  0.2498219202489804  0.7937272760002891  0.968851680652815  1.0000
  C   C19       1.0  0.2426958498061495  0.7989150480598465  0.8182157813511854  1.0000
  C   C20       1.0  0.19553295962728964  0.6896423706270809  0.7517598630128539  1.0000
  C   C21       1.0  0.1549536367138215  0.5720665865649872  0.834162010280028  1.0000
  C   C22       1.0  0.3034883519601995  0.9093577908306884  0.040118175165073204  1.0000
  C   C23       1.0  0.4097932467221972  0.8682118528045675  0.057939099445100124  1.0000
  H   H12       1.0  0.11815783501623417  0.33768636447941813  0.2852142927650317  1.0000
  H   H13       1.0  0.21415314494423265  0.6749641846211218  0.16924689351435407  1.0000
  H   H14       1.0  0.27462983958146725  0.887045602742558  0.7518803070575206  1.0000
  H   H15       1.0  0.19301039952140026  0.6952616852517465  0.6347887787459059  1.0000
  H   H16       1.0  0.04213216136866938  0.4058822440131587  0.5662319014053239  1.0000
  H   H17       1.0  0.29748172800093875  0.014038073473734857  0.9743381522480742  1.0000
  H   H18       1.0  0.2712721268498359  0.9256884688841746  0.1480040727398324  1.0000
  H   H19       1.0  0.4173706541766704  0.7656343726019916  0.12662821010194536  1.0000
  H   H20       1.0  0.4438521832669595  0.8549410165291929  0.9507566458771269  1.0000
  H   H21       1.0  0.44801384082659546  0.9547696949452729  0.11055555950343843  1.0000
  Zn  Zn1       1.0  0.05166395766038543  0.5698946291336362  0.41084293519032444  1.0000
  Zn  Zn2       1.0  0.26318134952280814  0.5698904989079367  0.4108381046283738  1.0000
  C   C24       1.0  0.15592616300765627  0.5655004853792065  0.674125157604557  1.0000
  C   C25       1.0  0.15892144058926516  0.5742864627137729  0.1475560246975145  1.0000
  C   C26       1.0  0.15564317266281333  0.8332193751181178  0.4052480612180105  1.0000
  C   C27       1.0  0.1592043702332317  0.3065658409568024  0.41643319694315006  1.0000
  O   O1        1.0  0.23886251651224677  0.5764826303672685  0.20126383356834124  1.0000
  O   O2        1.0  0.23652190324113698  0.5633000930568901  0.6204132668517952  1.0000
  O   O3        1.0  0.23629229412536135  0.7794864900064267  0.40329311005779056  1.0000
  O   O4        1.0  0.23909205401205647  0.36029624317912884  0.4183838822836359  1.0000
  O   O5        1.0  0.07575318099066575  0.7794888848653846  0.4032971575291291  1.0000
  O   O6        1.0  0.07598277862684634  0.5633042199368474  0.6204172384581113  1.0000
  O   O7        1.0  0.07832340243554455  0.5764866980997108  0.20126607198425894  1.0000
  O   O8        1.0  0.07855293937084903  0.36030030115311473  0.41838622877233056  1.0000
