data_image0
_chemical_formula_structural       NC12NC2H8C6SCNH5C12H10Zn2C4O8
_chemical_formula_sum              "N3 C37 H23 S1 Zn2 O8"
_cell_length_a       17.80743265337812
_cell_length_b       9.27526961838325
_cell_length_c       10.299141136925906
_cell_angle_alpha    85.80205870599151
_cell_angle_beta     91.556080336852
_cell_angle_gamma    88.87871087483882

_space_group_name_H-M_alt    "P 1"
_space_group_IT_number       1

loop_
  _space_group_symop_operation_xyz
  'x, y, z'

loop_
  _atom_site_type_symbol
  _atom_site_label
  _atom_site_symmetry_multiplicity
  _atom_site_fract_x
  _atom_site_fract_y
  _atom_site_fract_z
  _atom_site_occupancy
  N   N1        1.0  0.6992900553948114  0.5621837149728883  0.6072521277478782  1.0000
  C   C1        1.0  0.6482902183395711  0.5950217283340185  0.5386755536624023  1.0000
  C   C2        1.0  0.5848414201781883  0.6358698322330598  0.453374934842742  1.0000
  C   C3        1.0  0.5962388457698174  0.6958838154560762  0.32697838409738833  1.0000
  C   C4        1.0  0.534706303389371  0.7350618493473052  0.24406747053505962  1.0000
  C   C5        1.0  0.4616204166726006  0.7145186070247362  0.2868942917297525  1.0000
  C   C6        1.0  0.44924698604202035  0.6543725840139816  0.41375850501779365  1.0000
  C   C7        1.0  0.5116368226163871  0.6151981676627138  0.4966529198263099  1.0000
  C   C8        1.0  0.37159974149540353  0.6325915347833545  0.4594410305436487  1.0000
  C   C9        1.0  0.3526927538942506  0.6627375537144604  0.5866087093441297  1.0000
  C   C10       1.0  0.27957669992410894  0.6422404560957397  0.6294762731885939  1.0000
  C   C11       1.0  0.2244262730403447  0.5913147869983205  0.5460130898967319  1.0000
  C   C12       1.0  0.1491770130384752  0.5702035015573006  0.5902793027493904  1.0000
  N   N2        1.0  0.0886819372387837  0.5532314479171474  0.6258662925384229  1.0000
  C   C13       1.0  0.24264283326029343  0.5609810728129769  0.41938769109953666  1.0000
  C   C14       1.0  0.3157058897004894  0.581494661546724  0.37626428859418937  1.0000
  H   H1        1.0  0.6526140882392905  0.7123520454541836  0.2926026615465824  1.0000
  H   H2        1.0  0.5436475661656656  0.7818289122798214  0.1464624057989803  1.0000
  H   H3        1.0  0.4148010392115395  0.747440757593397  0.22142616943314716  1.0000
  H   H4        1.0  0.503401609111217  0.5668931047477885  0.5941276212110815  1.0000
  H   H5        1.0  0.39417810931711866  0.7039964304502304  0.6523442267019881  1.0000
  H   H6        1.0  0.26603511910718963  0.6664655264260073  0.7275840125593676  1.0000
  H   H7        1.0  0.2004336563922561  0.521129072152599  0.35407055904734985  1.0000
  H   H8        1.0  0.3287276779760096  0.5555646627259714  0.2784533505934299  1.0000
  C   C15       1.0  0.8961059848244033  0.1342935509111558  0.6149471543203879  1.0000
  C   C16       1.0  0.8692831528566974  0.21795199606605317  0.5032799508973096  1.0000
  C   C17       1.0  0.8367358302918759  0.1527731338070426  0.39829937126062664  1.0000
  C   C18       1.0  0.8305155694620846  0.002814964254413523  0.4028240349241736  1.0000
  C   C19       1.0  0.8577174062015324  0.9176172047090367  0.5121876727625119  1.0000
  C   C20       1.0  0.8918732661249094  0.9811103942616424  0.6181827146829828  1.0000
  S   S1        1.0  0.7877866698042456  0.919599624309979  0.26843456962777923  1.0000
  C   C21       1.0  0.8741919391213324  0.9013935345032262  0.19060638219737444  1.0000
  N   N3        1.0  0.9308517494654202  0.8894699834349304  0.1396101998503354  1.0000
  H   H9        1.0  0.977238842432074  0.39886652534591893  0.7812642261200797  1.0000
  H   H10       1.0  0.8718371672298506  0.33481225016731453  0.49836177170752993  1.0000
  H   H11       1.0  0.8157971105118994  0.21925943327936004  0.31375439376932945  1.0000
  H   H12       1.0  0.8538652077696912  0.8011147966682195  0.5128667435159853  1.0000
  H   H13       1.0  0.01621914247534794  0.8537330366073435  0.8606248455150003  1.0000
  C   C22       1.0  0.8939036031708038  0.5578269805797016  0.23516834496825553  1.0000
  C   C23       1.0  0.9723080681892132  0.5715511871134566  0.23716411094120543  1.0000
  C   C24       1.0  0.012150820056781919  0.5783814549266602  0.12104604671856967  1.0000
  C   C25       1.0  0.9725293161755378  0.5713023063039595  0.0019079927959937432  1.0000
  C   C26       1.0  0.8940756615255467  0.5575769397343877  0.9979615990323643  1.0000
  C   C27       1.0  0.8552458899532541  0.5509214131075741  0.11506112412168344  1.0000
  C   C28       1.0  0.09509484624423448  0.5929021009043097  0.1242021368740025  1.0000
  C   C29       1.0  0.14020476847157815  0.5130287076806066  0.04381504574787698  1.0000
  C   C30       1.0  0.2182690156128846  0.5268757690749821  0.047024049311328746  1.0000
  C   C31       1.0  0.2521269479417696  0.6203887080918002  0.13018351028293584  1.0000
  C   C32       1.0  0.20798908779612502  0.7002493164715721  0.2103724269574192  1.0000
  C   C33       1.0  0.12990334475285326  0.6867642087714102  0.20763367986733436  1.0000
  H   H14       1.0  0.8637398100476826  0.5526212439676607  0.5618713620692172  1.0000
  H   H15       1.0  0.0026909074700451857  0.5749682372305207  0.32938560279961004  1.0000
  H   H16       1.0  0.00283506400631061  0.578500114369312  0.9119629209872596  1.0000
  H   H17       1.0  0.7947705152415122  0.540339629605443  0.11280583572524971  1.0000
  H   H18       1.0  0.7459450925944062  0.5325868288161826  0.7831588510040808  1.0000
  H   H19       1.0  0.11521631851463578  0.43856180773335157  0.9798044629314598  1.0000
  H   H20       1.0  0.2525523138335535  0.4647422540765986  0.9851851998899853  1.0000
  H   H21       1.0  0.31256212388299853  0.6309669892894791  0.1324856519282911  1.0000
  H   H22       1.0  0.23427646846976669  0.7729846802067517  0.2745184042720523  1.0000
  H   H23       1.0  0.09669269005805914  0.7510435162641848  0.26942849255162415  1.0000
  Zn  Zn1       1.0  0.8116601654362672  0.5595964320862157  0.6126312463857413  1.0000
  Zn  Zn2       1.0  0.9763118858806501  0.5558069659677849  0.6204977227818956  1.0000
  C   C34       1.0  0.8940701543071462  0.5518801811878518  0.8537552874048162  1.0000
  C   C35       1.0  0.8939036859367351  0.5635249947171056  0.37937390209147326  1.0000
  C   C36       1.0  0.89266829820126  0.8210457549310601  0.6123954280311749  1.0000
  C   C37       1.0  0.8953054945329508  0.2943576899219569  0.6207338214054596  1.0000
  O   O1        1.0  0.9563882149745324  0.5639929272943682  0.4307558671569997  1.0000
  O   O2        1.0  0.9565524766577695  0.5485350438968919  0.8083434178767845  1.0000
  O   O3        1.0  0.9554196181074142  0.7658896677011852  0.613443589256252  1.0000
  O   O4        1.0  0.9575210172668903  0.3466383151295316  0.6256555957509073  1.0000
  O   O5        1.0  0.8304509778624662  0.7687650842191998  0.6074733707254618  1.0000
  O   O6        1.0  0.8315838277349313  0.5514121927615769  0.8023731367143807  1.0000
  O   O7        1.0  0.8314195660006382  0.56687002642442  0.4247840242909189  1.0000
  O   O8        1.0  0.8325523683634325  0.34951540391485736  0.6196838502201838  1.0000
