data_image0
_chemical_formula_structural       NC11NC3H8C6NCONH8C7OIH5Zn2C4O8
_chemical_formula_sum              "N4 C32 H21 O10 I1 Zn2"
_cell_length_a       17.807433833752565
_cell_length_b       10.300273812906134
_cell_length_c       10.297413674417342
_cell_angle_alpha    85.55128198850484
_cell_angle_beta     88.53982198225897
_cell_angle_gamma    90.66453185748759

_space_group_name_H-M_alt    "P 1"
_space_group_IT_number       1

loop_
  _space_group_symop_operation_xyz
  'x, y, z'

loop_
  _atom_site_type_symbol
  _atom_site_label
  _atom_site_symmetry_multiplicity
  _atom_site_fract_x
  _atom_site_fract_y
  _atom_site_fract_z
  _atom_site_occupancy
  N   N1        1.0  0.7068944813433637  0.43858654198333974  0.5343474196433096  1.0000
  C   C1        1.0  0.6560923679788216  0.40385291937877926  0.6009235807527247  1.0000
  C   C2        1.0  0.5928894114302337  0.36064715630821126  0.6837358291299293  1.0000
  C   C3        1.0  0.604648445009207  0.2970841973902294  0.806479709994427  1.0000
  C   C4        1.0  0.5433521872227628  0.2555584156865418  0.8870075532259611  1.0000
  C   C5        1.0  0.4701427111199426  0.2772822566389546  0.8454324441143383  1.0000
  C   C6        1.0  0.4574067814840506  0.340999819987211  0.722228271087834  1.0000
  C   C7        1.0  0.37962838542713656  0.3640540758561712  0.6778719349854859  1.0000
  C   C8        1.0  0.36082809278284483  0.34720050621527165  0.5482650731457772  1.0000
  C   C9        1.0  0.287588675140667  0.3688856275806549  0.5066458836458894  1.0000
  C   C10       1.0  0.2322062845848069  0.4077429377421475  0.5938131122324842  1.0000
  C   C11       1.0  0.15682980106233457  0.43008666816161734  0.5508323463320797  1.0000
  N   N2        1.0  0.0962324825736292  0.44804936747171015  0.5162789386799305  1.0000
  C   C12       1.0  0.2503148887026774  0.42480714340733505  0.7228887301466069  1.0000
  C   C13       1.0  0.323501591350882  0.4030870595213554  0.7647634015007695  1.0000
  C   C14       1.0  0.5195603546275015  0.38252103481396293  0.6417168470712364  1.0000
  H   H1        1.0  0.6611229356383758  0.2796662772935836  0.8398521700381321  1.0000
  H   H2        1.0  0.5525749874868086  0.2060963645352134  0.9817633420610508  1.0000
  H   H3        1.0  0.42352028163624833  0.24271977507408526  0.9088846800673516  1.0000
  H   H4        1.0  0.4025021671102669  0.31557001385498684  0.47953460975438844  1.0000
  H   H5        1.0  0.27413446280664033  0.3550193717374204  0.40659090893222105  1.0000
  H   H6        1.0  0.20792419811224866  0.45521475672371303  0.7911043249338284  1.0000
  H   H7        1.0  0.33642703056085277  0.4184986511522042  0.8646355775031861  1.0000
  H   H8        1.0  0.5110357929004828  0.43334532008019266  0.5471954162577133  1.0000
  C   C15       1.0  0.901644238456709  0.06197180235612243  0.5253255544974869  1.0000
  C   C16       1.0  0.919231281268006  0.07167327151013116  0.39115682704194205  1.0000
  C   C17       1.0  0.9291214976431459  0.9592788128634431  0.3239031031540198  1.0000
  C   C18       1.0  0.9190577497522346  0.8365124251024083  0.39117934818336625  1.0000
  C   C19       1.0  0.9014899109225329  0.824654329502484  0.5253116355321208  1.0000
  C   C20       1.0  0.8931598133725216  0.9379932464841949  0.5917754978253755  1.0000
  N   N3        1.0  0.9459488260985253  0.9676016429155045  0.18613021468833923  1.0000
  C   C21       1.0  0.9932847597267864  0.06640725203151221  0.11934482516028044  1.0000
  O   O1        1.0  0.03251175160716269  0.1412403141806187  0.18216965317076725  1.0000
  N   N4        1.0  0.9979746816351378  0.07773068921882675  0.9803943717278737  1.0000
  H   H9        1.0  0.89385803742194  0.3857143984267233  0.5759567671706558  1.0000
  H   H10       1.0  0.9237446203123052  0.16660428184846698  0.33848548338166723  1.0000
  H   H11       1.0  0.9256511542745791  0.7502729266675051  0.33831744682399467  1.0000
  H   H12       1.0  0.8796160827605307  0.9297015873660339  0.6952615005071869  1.0000
  H   H13       1.0  0.893716474668937  0.4927609093949311  0.5757516950989092  1.0000
  H   H14       1.0  0.9268337717545058  0.8922957200725444  0.1325049964085614  1.0000
  H   H15       1.0  0.9662931706910298  0.016123053959187457  0.9266084682699405  1.0000
  H   H16       1.0  0.03298214962127744  0.14823807314229992  0.9310525560643521  1.0000
  C   C22       1.0  0.9015083590534856  0.44336401418289423  0.1438688994383701  1.0000
  C   C23       1.0  0.8312903616578419  0.5042078225510511  0.14105479312860392  1.0000
  C   C24       1.0  0.795627753472118  0.5351093366680804  0.022510246566887597  1.0000
  C   C25       1.0  0.8314257373099965  0.504090380348117  0.9058606805359063  1.0000
  C   C26       1.0  0.9016258021022497  0.4432620635421662  0.9067683569656037  1.0000
  C   C27       1.0  0.9362370903150407  0.4132715073787234  0.026252962998869925  1.0000
  C   C28       1.0  0.7213745643178598  0.5994495055434095  0.02207321402452478  1.0000
  O   O2        1.0  0.6902977669553696  0.6263768621857315  0.12777863966684855  1.0000
  I   I1        1.0  0.6627408907141459  0.6502565177634612  0.8493422339805115  1.0000
  H   H17       1.0  0.03408563952944221  0.328484936699879  0.3563962522626396  1.0000
  H   H18       1.0  0.8043065353298315  0.5275893438341277  0.23161839447347063  1.0000
  H   H19       1.0  0.80498107779621  0.5270043864021232  0.8137806376553485  1.0000
  H   H20       1.0  0.9903641725694784  0.3663704930508467  0.027615245581658055  1.0000
  H   H21       1.0  0.9288024787426503  0.419713868848945  0.5795636958962159  1.0000
  Zn  Zn1       1.0  0.819249019988827  0.4413138335785305  0.5291407325056685  1.0000
  Zn  Zn2       1.0  0.9838779329461381  0.4453114555014084  0.5214962142672313  1.0000
  C   C29       1.0  0.9016029603521807  0.43810793133737747  0.7625641581626619  1.0000
  C   C30       1.0  0.9015257900134592  0.44851903990155906  0.2880728325959303  1.0000
  C   C31       1.0  0.901514415755193  0.6804916594919241  0.5201381942492496  1.0000
  C   C32       1.0  0.9016142787604775  0.20613375016386892  0.5304988683996132  1.0000
  O   O3        1.0  0.964007455645779  0.4517605249059866  0.33356793515430416  1.0000
  O   O4        1.0  0.9640708305413961  0.43789956925947027  0.7112666692360469  1.0000
  O   O5        1.0  0.9639984876635663  0.6336274744734867  0.5155060272556178  1.0000
  O   O6        1.0  0.9640797423300419  0.25603262763053714  0.5293284823478237  1.0000
  O   O7        1.0  0.8390471544251534  0.6305926600866243  0.5213084670269421  1.0000
  O   O8        1.0  0.8391194969731829  0.43486631509297413  0.7170690397189673  1.0000
  O   O9        1.0  0.8390561218963016  0.44872722569611145  0.3393687439042694  1.0000
  O   O10       1.0  0.8391284085943621  0.2529993191193181  0.5351293884865648  1.0000
