data_image0
_chemical_formula_structural       NC10NC3NH7C7OC4NC3H8C7OC4NC3H9Zn2C4O8
_chemical_formula_sum              "N5 C45 H24 O10 Zn2"
_cell_length_a       19.210446455230148
_cell_length_b       10.299371701877257
_cell_length_c       10.299375074045738
_cell_angle_alpha    85.55924318392921
_cell_angle_beta     89.98394630169429
_cell_angle_gamma    89.95709994445667

_space_group_name_H-M_alt    "P 1"
_space_group_IT_number       1

loop_
  _space_group_symop_operation_xyz
  'x, y, z'

loop_
  _atom_site_type_symbol
  _atom_site_label
  _atom_site_symmetry_multiplicity
  _atom_site_fract_x
  _atom_site_fract_y
  _atom_site_fract_z
  _atom_site_occupancy
  N   N1        1.0  0.6556893947322925  0.4207377883415475  0.5678194272589108  1.0000
  C   C1        1.0  0.5954608625537853  0.4229451841876717  0.5680514575592996  1.0000
  C   C2        1.0  0.5206564442762637  0.42568195090637495  0.5683389149706675  1.0000
  C   C3        1.0  0.48504627461491023  0.5419049866529178  0.5834972662353581  1.0000
  C   C4        1.0  0.41238079882270423  0.5420565428843582  0.5834447265418583  1.0000
  C   C5        1.0  0.3754896940822874  0.4263908744421119  0.5684256819274713  1.0000
  C   C6        1.0  0.298167557464754  0.4250344755685162  0.5682745475587656  1.0000
  C   C7        1.0  0.2604170277591467  0.528628991712204  0.5049510482126076  1.0000
  C   C8        1.0  0.1876386628450881  0.5272268217250522  0.5048414152475547  1.0000
  C   C9        1.0  0.1516094213002578  0.42248766247249003  0.5680043844453244  1.0000
  C   C10       1.0  0.07667989391347761  0.4211856514712977  0.5678670354361  1.0000
  N   N2        1.0  0.016442035698655797  0.4201387904042253  0.5677566416925628  1.0000
  C   C11       1.0  0.1886362958043401  0.319018847241099  0.6313029239543739  1.0000
  C   C12       1.0  0.2614165048362563  0.32014673260467985  0.6314626964870063  1.0000
  C   C13       1.0  0.4137097320005264  0.31198795695754367  0.55355622657804  1.0000
  N   N3        1.0  0.4844796963767157  0.3144328350477503  0.5537227624085015  1.0000
  H   H1        1.0  0.5131476124340518  0.6313326606548162  0.5955815348475366  1.0000
  H   H2        1.0  0.3851122690129571  0.6320655169294982  0.5969240064644863  1.0000
  H   H3        1.0  0.2871469497272703  0.6099017182252646  0.4539904056556154  1.0000
  H   H4        1.0  0.1594948338934017  0.6076713214939891  0.45521089439119905  1.0000
  H   H5        1.0  0.1612667880683505  0.23761100250892198  0.6808335753459556  1.0000
  H   H6        1.0  0.2889154073217851  0.23982084203314002  0.6825310504798041  1.0000
  H   H7        1.0  0.387444061852765  0.2211160914446326  0.5400303567344369  1.0000
  C   C14       1.0  0.8360326382990371  0.03906797494082848  0.5676610435391933  1.0000
  C   C15       1.0  0.839423352086632  0.048455337553287244  0.4309920768953403  1.0000
  C   C16       1.0  0.8403431335674943  0.9360224868568888  0.36199777601884264  1.0000
  C   C17       1.0  0.8394319429928501  0.8131868865360049  0.43130947936263864  1.0000
  C   C18       1.0  0.8361054417114372  0.8017986109348694  0.5679262496801942  1.0000
  C   C19       1.0  0.8342418932871274  0.9153413376533934  0.6352957691243124  1.0000
  C   C20       1.0  0.8446545457669927  0.9457899002975062  0.2177433621966549  1.0000
  O   O1        1.0  0.8781608541149306  0.8600083948169187  0.1627902621875743  1.0000
  C   C21       1.0  0.8109434205309771  0.05279037665658537  0.13583495686352265  1.0000
  C   C22       1.0  0.8407635691267429  0.09743089134534921  0.015856438321842466  1.0000
  C   C23       1.0  0.8088881174287234  0.19741706989387686  0.9370691967620246  1.0000
  C   C24       1.0  0.8400588307561451  0.2432402267758944  0.8149042383188266  1.0000
  N   N4        1.0  0.8651186956397412  0.2800724110085955  0.7167013267588729  1.0000
  C   C25       1.0  0.746672884674468  0.25268348194489243  0.9772528894348849  1.0000
  C   C26       1.0  0.7162652268870581  0.20783397903118517  0.09549191606022767  1.0000
  C   C27       1.0  0.7479408157373794  0.10814561110118004  0.1742677945010378  1.0000
  H   H8        1.0  0.8421326134279182  0.14339473391331414  0.3781036330526446  1.0000
  H   H9        1.0  0.8406569343015606  0.7263675386927921  0.37829565432333756  1.0000
  H   H10       1.0  0.8316282815489843  0.9073004746256976  0.7406578009596456  1.0000
  H   H11       1.0  0.8354134351189881  0.46996235117939716  0.6204529791582949  1.0000
  H   H12       1.0  0.8890392485219158  0.05527162804138541  0.9842703414845038  1.0000
  H   H13       1.0  0.7215828675239084  0.32996433482086607  0.9170162314492322  1.0000
  H   H14       1.0  0.6678707609581259  0.2500100644176688  0.12592499800467416  1.0000
  H   H15       1.0  0.7227867268933541  0.07344311857289165  0.2644308034675418  1.0000
  C   C28       1.0  0.8360927147023359  0.42057561900318663  0.18640693332220315  1.0000
  C   C29       1.0  0.8896827703923923  0.5135977240228113  0.1779864802458786  1.0000
  C   C30       1.0  0.916171429582731  0.5615966251231825  0.05648247526204497  1.0000
  C   C31       1.0  0.889570044325552  0.5133601751437165  0.9427611009878637  1.0000
  C   C32       1.0  0.836045340499512  0.4202910128556574  0.9491803986418423  1.0000
  C   C33       1.0  0.8094916041527873  0.3746887817190263  0.07148152235478866  1.0000
  C   C34       1.0  0.9732585619445314  0.6588208586707904  0.04752883202433256  1.0000
  O   O2        1.0  0.017741686283917257  0.6540619762569255  0.9578845252693573  1.0000
  C   C35       1.0  0.9798720294030114  0.7614555409474266  0.14018987314115283  1.0000
  C   C36       1.0  0.04607131688546474  0.8079067231752829  0.171951100121031  1.0000
  C   C37       1.0  0.052826013804691214  0.9059074793705569  0.258200739413615  1.0000
  C   C38       1.0  0.12080765575832132  0.9521463737362315  0.2909926923905961  1.0000
  N   N5        1.0  0.17545723661354742  0.9893116184690829  0.3173499649492011  1.0000
  C   C39       1.0  0.9933879794104673  0.9588573246718373  0.31242289203706397  1.0000
  C   C40       1.0  0.9274207761748043  0.9144174105980598  0.28016137091473436  1.0000
  C   C41       1.0  0.9205276645676177  0.8166868691902702  0.19418740837298976  1.0000
  H   H16       1.0  0.7356938990490403  0.24356715509760463  0.4097315659473211  1.0000
  H   H17       1.0  0.9114180520917942  0.547763002769414  0.26617784036017156  1.0000
  H   H18       1.0  0.910293205661009  0.5495616851005807  0.8490249340441629  1.0000
  H   H19       1.0  0.7681778181971315  0.3029748660155014  0.07716925732922353  1.0000
  H   H20       1.0  0.8158848973177384  0.3837376786040992  0.6242510714368139  1.0000
  H   H21       1.0  0.09234395425264721  0.7671097095817128  0.13054822447917647  1.0000
  H   H22       1.0  0.9980387796288793  0.034727720065709455  0.37912766048744273  1.0000
  H   H23       1.0  0.8814950331608705  0.9561925477444695  0.3214157078308204  1.0000
  H   H24       1.0  0.868821093926641  0.7853791263224998  0.1688821755125849  1.0000
  Zn  Zn1       1.0  0.7597948125934624  0.4205614636112269  0.567808806913449  1.0000
  Zn  Zn2       1.0  0.9123366002271253  0.4203045285790726  0.5677778946319916  1.0000
  C   C42       1.0  0.8360522658390515  0.41517109301426913  0.8049980540041248  1.0000
  C   C43       1.0  0.8360808128816044  0.42569653494835813  0.3305887752459251  1.0000
  C   C44       1.0  0.8360884168611254  0.6576282379980929  0.5627007110806961  1.0000
  C   C45       1.0  0.8360446096544529  0.18323782971804503  0.5728861868792261  1.0000
  O   O3        1.0  0.8939656314098229  0.42731198985174673  0.3789657854931514  1.0000
  O   O4        1.0  0.893943134477775  0.41335965077994646  0.7565972078463863  1.0000
  O   O5        1.0  0.8939715464325642  0.6091468624539804  0.5609403897694967  1.0000
  O   O6        1.0  0.8939371674097862  0.23152478759198122  0.5746225062046069  1.0000
  O   O7        1.0  0.7781941933557761  0.6093412046874137  0.5609641953445519  1.0000
  O   O8        1.0  0.7781657815510389  0.41355555334896515  0.7566209447152874  1.0000
  O   O9        1.0  0.7781882786219974  0.42750784774722644  0.3789879608727409  1.0000
  O   O10       1.0  0.7781598146121829  0.23172063616228833  0.5746447789533491  1.0000
