data_image0
_chemical_formula_structural       NC12NC2H8C6NCH9C9H8Zn2C4O8
_chemical_formula_sum              "N3 C34 H25 Zn2 O8"
_cell_length_a       19.240039667572717
_cell_length_b       9.273386996610926
_cell_length_c       9.275155815604963
_cell_angle_alpha    85.96204841331945
_cell_angle_beta     90.35749810205114
_cell_angle_gamma    89.39858615406628

_space_group_name_H-M_alt    "P 1"
_space_group_IT_number       1

loop_
  _space_group_symop_operation_xyz
  'x, y, z'

loop_
  _atom_site_type_symbol
  _atom_site_label
  _atom_site_symmetry_multiplicity
  _atom_site_fract_x
  _atom_site_fract_y
  _atom_site_fract_z
  _atom_site_occupancy
  N   N1        1.0  0.6417692391804973  0.5651544782323864  0.40766978455739383  1.0000
  C   C1        1.0  0.5816208696212409  0.5651545707412453  0.40766969347670423  1.0000
  C   C2        1.0  0.5068028313686079  0.5651546997178631  0.40766954089166685  1.0000
  C   C3        1.0  0.4710319551674446  0.4945304406733442  0.5225471004883089  1.0000
  C   C4        1.0  0.3983621155157858  0.49440809360680676  0.5226433401916932  1.0000
  C   C5        1.0  0.3604705951615552  0.5651548003702465  0.40766928805505886  1.0000
  C   C6        1.0  0.39695475278265097  0.6359017167075566  0.2926954514743308  1.0000
  C   C7        1.0  0.4696263514224811  0.6357791092039231  0.29279182754613453  1.0000
  C   C8        1.0  0.28326550485053775  0.5651547120773244  0.40766918230875615  1.0000
  C   C9        1.0  0.2468525733116414  0.4397376564606843  0.4543386229048934  1.0000
  C   C10       1.0  0.1741809831389274  0.4398555354853874  0.454237082419247  1.0000
  C   C11       1.0  0.13693321885436446  0.565154569165991  0.4076692501359429  1.0000
  C   C12       1.0  0.06211518315728089  0.5651544451884087  0.40766952629194453  1.0000
  N   N2        1.0  0.001966867220469101  0.5651544018296835  0.40766975765901853  1.0000
  C   C13       1.0  0.17263296482585988  0.6904536865753697  0.36110135902090157  1.0000
  C   C14       1.0  0.245302757707023  0.6905717641364675  0.36099963777227373  1.0000
  H   H1        1.0  0.4992932015701024  0.43985807211988365  0.6122394776129656  1.0000
  H   H2        1.0  0.37181436935769135  0.44063294003826425  0.6135722207279009  1.0000
  H   H3        1.0  0.3693159678331601  0.6896768998419487  0.2017665144604166  1.0000
  H   H4        1.0  0.49679487795420757  0.690451369013702  0.2030997566659778  1.0000
  H   H5        1.0  0.2745499133669003  0.3409961056154578  0.4890869729413536  1.0000
  H   H6        1.0  0.147068545970606  0.3421227137566389  0.49013015541721644  1.0000
  H   H7        1.0  0.14431557873228731  0.7881864811860513  0.3252083022143484  1.0000
  H   H8        1.0  0.2717918958762899  0.7893134025082966  0.3262512379083966  1.0000
  C   C15       1.0  0.8240107811430302  0.14150656749164514  0.408377968582323  1.0000
  C   C16       1.0  0.835828133573208  0.2238593819158845  0.2780658770783011  1.0000
  C   C17       1.0  0.8411013531104787  0.1582336392425916  0.14774573140995395  1.0000
  C   C18       1.0  0.8346329546992711  0.007904197421297216  0.14440569386964675  1.0000
  C   C19       1.0  0.8240390885802068  0.9245845681492304  0.2742651101534592  1.0000
  C   C20       1.0  0.8197320772818596  0.988791328195651  0.40697404536584947  1.0000
  N   N3        1.0  0.8393106461710667  0.9372188477690975  0.011394960014881276  1.0000
  C   C21       1.0  0.8504719599255623  0.01390355936774434  0.8707533198553965  1.0000
  H   H9        1.0  0.8389120931159277  0.40568999101147923  0.6449935318844511  1.0000
  H   H10       1.0  0.8393678898011554  0.3404900399736879  0.2762976995241546  1.0000
  H   H11       1.0  0.8495760626764097  0.22599226606524958  0.04984882744770625  1.0000
  H   H12       1.0  0.8207517583473009  0.8081639094360056  0.2719915102345003  1.0000
  H   H13       1.0  0.8463636009765075  0.8604538718910876  0.7580023034038033  1.0000
  H   H14       1.0  0.834405738967313  0.8248774760011974  0.014383565573070417  1.0000
  H   H15       1.0  0.80731081293295  0.09226137190686458  0.8457124366346811  1.0000
  H   H16       1.0  0.9007790582456419  0.07145730462783306  0.8709858760295583  1.0000
  H   H17       1.0  0.8519710454761502  0.9357318224319484  0.7854314386930606  1.0000
  C   C22       1.0  0.8206163914088269  0.5615023857333334  0.9844508005838746  1.0000
  C   C23       1.0  0.7658896464600957  0.6317978739177863  0.05214920101304267  1.0000
  C   C24       1.0  0.7157698311405791  0.711681305413725  0.9707320730703581  1.0000
  C   C25       1.0  0.7194463224701505  0.7229420203573476  0.8201316158582905  1.0000
  C   C26       1.0  0.7727783368440975  0.651871419093977  0.7507261352590604  1.0000
  C   C27       1.0  0.8231264672629905  0.5687954833472824  0.8309011409626135  1.0000
  C   C28       1.0  0.6679045575297997  0.8061959082865595  0.7363962849101569  1.0000
  C   C29       1.0  0.6247475961983966  0.8759096700056472  0.666252730730037  1.0000
  C   C30       1.0  0.5723843802495397  0.9604955325994933  0.5811339110805834  1.0000
  H   H18       1.0  0.9825278201264708  0.44510646866286097  0.09760148871435703  1.0000
  H   H19       1.0  0.7627872779598277  0.627798799799593  0.16894736616498673  1.0000
  H   H20       1.0  0.6744809694685324  0.7659050970066863  0.02545526136515775  1.0000
  H   H21       1.0  0.7740282619706873  0.6586552481884784  0.6335685982946933  1.0000
  H   H22       1.0  0.9311898041263106  0.48525005021615003  0.5574571698311868  1.0000
  H   H23       1.0  0.5864870528986147  0.9646405552382271  0.46512805234022153  1.0000
  H   H24       1.0  0.5208791625823622  0.9091226700341588  0.5962453263697056  1.0000
  H   H25       1.0  0.570062862615259  0.07189217655423354  0.617454053501191  1.0000
  Zn  Zn1       1.0  0.7457145472009712  0.565150676206609  0.4076780934781583  1.0000
  Zn  Zn2       1.0  0.8980216722773912  0.565146537313739  0.4076732303956072  1.0000
  C   C31       1.0  0.822679491881655  0.5616697284859826  0.6709134603281117  1.0000
  C   C32       1.0  0.8210583820130594  0.5686293064869083  0.14443800193258638  1.0000
  C   C33       1.0  0.8205202465445083  0.8285870029109754  0.40149623263776124  1.0000
  C   C34       1.0  0.823217584359147  0.3017102994457628  0.4138553093344007  1.0000
  O   O1        1.0  0.8790065100919441  0.5710133016563981  0.19812933312078318  1.0000
  O   O2        1.0  0.8803289518544716  0.5592815000822098  0.6172180250995005  1.0000
  O   O3        1.0  0.8785845592128879  0.7748205877432843  0.39966170510723986  1.0000
  O   O4        1.0  0.8807508503888577  0.35547422338580703  0.41568554503580013  1.0000
  O   O5        1.0  0.7629853171145273  0.7748229901374587  0.3996657788320417  1.0000
  O   O6        1.0  0.7647297007721925  0.5592856350954538  0.6172220191069151  1.0000
  O   O7        1.0  0.7634072541713587  0.5710173714667537  0.1981315944428339  1.0000
  O   O8        1.0  0.7651515948379651  0.3554782838085968  0.4156879144291713  1.0000
