data_image0
_chemical_formula_structural       NC8NC6H8C16H10C12NCOCH13Zn2C4O8
_chemical_formula_sum              "N3 C48 H31 O9 Zn2"
_cell_length_a       17.457602349358154
_cell_length_b       10.29914801576943
_cell_length_c       10.299158637457992
_cell_angle_alpha    85.55741753884429
_cell_angle_beta     92.85709877509845
_cell_angle_gamma    91.70309287404056

_space_group_name_H-M_alt    "P 1"
_space_group_IT_number       1

loop_
  _space_group_symop_operation_xyz
  'x, y, z'

loop_
  _atom_site_type_symbol
  _atom_site_label
  _atom_site_symmetry_multiplicity
  _atom_site_fract_x
  _atom_site_fract_y
  _atom_site_fract_z
  _atom_site_occupancy
  N   N1        1.0  0.7228921408173279  0.4524735590679396  0.6259184678933585  1.0000
  C   C1        1.0  0.6618096274593261  0.406540698399428  0.6153215040456606  1.0000
  C   C2        1.0  0.5858203968288647  0.3494059379481564  0.6021484206154575  1.0000
  C   C3        1.0  0.5272834034353213  0.3895975356054278  0.6770294595043027  1.0000
  C   C4        1.0  0.4527324432924568  0.3345814343128002  0.6644699483788725  1.0000
  C   C5        1.0  0.3906040414036944  0.3770179258461117  0.7437718606925732  1.0000
  C   C6        1.0  0.31607053757009  0.39546830560100243  0.6880010204413334  1.0000
  C   C7        1.0  0.25753349462198405  0.43547600004886533  0.762990087609573  1.0000
  C   C8        1.0  0.18156233997587873  0.45453150595272773  0.7050035472918716  1.0000
  N   N2        1.0  0.1204944472049297  0.4698457525117737  0.6583825225245403  1.0000
  C   C9        1.0  0.2730377317792406  0.45727665563814474  0.8942584116942536  1.0000
  C   C10       1.0  0.3467865142760745  0.4392154319209712  0.9504166901006947  1.0000
  C   C11       1.0  0.4053118918148939  0.3993879679812633  0.8758852692093009  1.0000
  C   C12       1.0  0.4380072954417398  0.23869575466173432  0.5755967599420542  1.0000
  C   C13       1.0  0.4965325352150349  0.1987830013093466  0.501115609335173  1.0000
  C   C14       1.0  0.5702986421222558  0.2539116810371014  0.5142250224876594  1.0000
  H   H1        1.0  0.5396256580980936  0.4648216931010692  0.7436292786933192  1.0000
  H   H2        1.0  0.303742625719018  0.3804609031786237  0.5859830067679721  1.0000
  H   H3        1.0  0.22817009354844753  0.4881827324787347  0.9530814480443175  1.0000
  H   H4        1.0  0.3586010087091617  0.4557804963980334  0.05206080955684045  1.0000
  H   H5        1.0  0.4617866651405632  0.38441108096826104  0.921997669236288  1.0000
  H   H6        1.0  0.3815181514258297  0.19335259971424917  0.5649634389411919  1.0000
  H   H7        1.0  0.48470447627293833  0.12467497948288211  0.4333170180366037  1.0000
  H   H8        1.0  0.6151661032590996  0.2221360117065403  0.4559134638260629  1.0000
  C   C15       1.0  0.9216422977619436  0.07975609623287475  0.642311882725803  1.0000
  C   C16       1.0  0.9041502830799942  0.08854361749364827  0.5074084713696334  1.0000
  C   C17       1.0  0.895337869577111  0.9758717234324132  0.4388495786911703  1.0000
  C   C18       1.0  0.9042527731081339  0.8532961378946811  0.5070122456458623  1.0000
  C   C19       1.0  0.921751610357864  0.8425535024354617  0.642000967728356  1.0000
  C   C20       1.0  0.9303400001898495  0.9562947224420238  0.7088197275265404  1.0000
  C   C21       1.0  0.8768336169597146  0.9862134750804407  0.2961380543316672  1.0000
  C   C22       1.0  0.9131475389259617  0.9067849948330197  0.21388460192066946  1.0000
  C   C23       1.0  0.8957051713779722  0.916642300797646  0.0795678217237259  1.0000
  C   C24       1.0  0.8417698638287122  0.005819938827917431  0.025685605511922335  1.0000
  C   C25       1.0  0.8053162920586815  0.08522218057642705  0.10664370299750625  1.0000
  C   C26       1.0  0.8227039554926839  0.07560375754443706  0.24097696339647134  1.0000
  C   C27       1.0  0.8238412446021647  0.01584557296943823  0.8873963418292021  1.0000
  C   C28       1.0  0.8088262191791608  0.024241946843942323  0.7715810786730222  1.0000
  C   C29       1.0  0.7912438017578826  0.0340739861716437  0.6359625884848494  1.0000
  C   C30       1.0  0.7762312964301084  0.0424690994967829  0.5201660390254865  1.0000
  H   H9        1.0  0.9283310177156979  0.403848919897573  0.6942123857655316  1.0000
  H   H10       1.0  0.8983724511488048  0.18332820630898383  0.4550261597237586  1.0000
  H   H11       1.0  0.8964945981883455  0.7660457918892726  0.4549628259094365  1.0000
  H   H12       1.0  0.9438297959689497  0.9488006932611993  0.8128748639107952  1.0000
  H   H13       1.0  0.9543046078402608  0.6149500805047923  0.8969245485825109  1.0000
  H   H14       1.0  0.9557592214443199  0.8382547531802842  0.25321384747148246  1.0000
  H   H15       1.0  0.9244203554004793  0.8549514027546148  0.017736966018430774  1.0000
  H   H16       1.0  0.7633150879438435  0.1543429646619503  0.06599439759567294  1.0000
  H   H17       1.0  0.7930945756252802  0.13686549605602807  0.30193201374797796  1.0000
  H   H18       1.0  0.7630491082112689  0.049840720763252966  0.41848690927201565  1.0000
  C   C31       1.0  0.9217688662801824  0.4610199681209542  0.2607892488074668  1.0000
  C   C32       1.0  0.9235710061914958  0.5978135799560287  0.24956551887145983  1.0000
  C   C33       1.0  0.9244245219985995  0.6673070729464237  0.126712326729296  1.0000
  C   C34       1.0  0.9234241915012109  0.5981670656072748  0.014241902012296583  1.0000
  C   C35       1.0  0.9216250512122578  0.46128966881639966  0.02352360590371405  1.0000
  C   C36       1.0  0.9208118206978505  0.39355789438013833  0.14718599526305454  1.0000
  C   C37       1.0  0.9263318842892946  0.8120179685758745  0.11581261133392394  1.0000
  C   C38       1.0  0.9734302623051988  0.8819154701419785  0.2021971078130007  1.0000
  C   C39       1.0  0.9752314432969094  0.01809632817688111  0.19180955402339417  1.0000
  C   C40       1.0  0.9304565003119939  0.08713140550924516  0.09397437399798036  1.0000
  C   C41       1.0  0.8824445264297938  0.017554405476794877  0.009298211055254187  1.0000
  C   C42       1.0  0.8806748470636672  0.8814028356395811  0.019427338377038698  1.0000
  N   N3        1.0  0.9301835904107753  0.227177351311024  0.08265798097327326  1.0000
  C   C43       1.0  0.9959262293135769  0.30904439744289336  0.11122427911854449  1.0000
  O   O1        1.0  0.062066125980204445  0.2625173364969795  0.1251614285507736  1.0000
  C   C44       1.0  0.9869474855410845  0.45247946100248276  0.11503341587214154  1.0000
  H   H19       1.0  0.9210997219561525  0.40840248194122936  0.5925841120669604  1.0000
  H   H20       1.0  0.9232432012283824  0.6506209911346695  0.3364674584931424  1.0000
  H   H21       1.0  0.9250950529249578  0.6512581750041422  0.9193844860360398  1.0000
  H   H22       1.0  0.9194244143852061  0.288045900354164  0.15512843768429385  1.0000
  H   H23       1.0  0.9186950213615013  0.20294571391369076  0.8337881551450916  1.0000
  H   H24       1.0  0.009330019051607468  0.8312525341360153  0.2773427499834027  1.0000
  H   H25       1.0  0.01064067293873361  0.06898720917708401  0.2617115268794665  1.0000
  H   H26       1.0  0.8465667395370524  0.06909338304395218  0.934723286328357  1.0000
  H   H27       1.0  0.842752177394197  0.8303553527003837  0.9530044057482696  1.0000
  H   H28       1.0  0.8804581948059124  0.2724637629028943  0.04363128917066162  1.0000
  H   H29       1.0  0.933004333493253  0.47183908587952894  0.16203767667092928  1.0000
  H   H30       1.0  0.984891484900575  0.4990609347689171  0.014127177895709499  1.0000
  H   H31       1.0  0.03589918516971213  0.49538937686531614  0.1716679643864092  1.0000
  Zn  Zn1       1.0  0.8376315758775046  0.4574833184668164  0.6352943926516181  1.0000
  Zn  Zn2       1.0  0.005754994363899926  0.46482534808101494  0.6490172345857059  1.0000
  C   C45       1.0  0.9216497799447406  0.4560644442820392  0.8793524243058434  1.0000
  C   C46       1.0  0.9217386264099925  0.46624594125464647  0.40495947958233636  1.0000
  C   C47       1.0  0.9217279811889937  0.6983665642335515  0.6368842453344912  1.0000
  C   C48       1.0  0.921660367560277  0.22394225837738846  0.6474277237454427  1.0000
  O   O2        1.0  0.9855304379542782  0.47078042129522313  0.45855207534825454  1.0000
  O   O3        1.0  0.9854597528505965  0.45710141489159134  0.8361747745980352  1.0000
  O   O4        1.0  0.9855220410087485  0.652763403998279  0.6403799338216376  1.0000
  O   O5        1.0  0.9854680924466842  0.27511843893983956  0.6543468140639681  1.0000
  O   O6        1.0  0.8579184204224504  0.6471902251039291  0.6299648084835914  1.0000
  O   O7        1.0  0.8578561324974912  0.451529796418924  0.8257595793784707  1.0000
  O   O8        1.0  0.8579268179401188  0.4652087570126364  0.4481353187577904  1.0000
  O   O9        1.0  0.8578644724096969  0.2695467654018857  0.6439301548444241  1.0000
