data_image0
_chemical_formula_structural       NC11NC3H8C12SCH12C16H10Zn2C4O8
_chemical_formula_sum              "N2 C47 H30 S1 Zn2 O8"
_cell_length_a       17.807433833752565
_cell_length_b       10.299776766347529
_cell_length_c       10.299151387937775
_cell_angle_alpha    85.58705518708118
_cell_angle_beta     88.51281441211556
_cell_angle_gamma    90.66624570658541

_space_group_name_H-M_alt    "P 1"
_space_group_IT_number       1

loop_
  _space_group_symop_operation_xyz
  'x, y, z'

loop_
  _atom_site_type_symbol
  _atom_site_label
  _atom_site_symmetry_multiplicity
  _atom_site_fract_x
  _atom_site_fract_y
  _atom_site_fract_z
  _atom_site_occupancy
  N   N1        1.0  0.7073113606875095  0.4378112127162448  0.534707933016737  1.0000
  C   C1        1.0  0.6564908188506442  0.40311418860723003  0.6012691184355123  1.0000
  C   C2        1.0  0.5932649396081804  0.35995394932392727  0.6840627388928933  1.0000
  C   C3        1.0  0.6049900051950945  0.29645848699650634  0.8067790313443545  1.0000
  C   C4        1.0  0.5436714651449188  0.2549769952908507  0.8872887828429448  1.0000
  C   C5        1.0  0.4704734977087561  0.27667798293282697  0.8457230272031233  1.0000
  C   C6        1.0  0.45777166205583514  0.3403277928018512  0.7225465422153854  1.0000
  C   C7        1.0  0.3800055425163213  0.36335766101901035  0.6782001796800163  1.0000
  C   C8        1.0  0.361239723810579  0.3464290362493176  0.5486186076789132  1.0000
  C   C9        1.0  0.2880118260125805  0.3680912772906135  0.5070087787431405  1.0000
  C   C10       1.0  0.2326067066480044  0.4070003063079388  0.594160257601337  1.0000
  C   C11       1.0  0.1572421189994104  0.42932040558039974  0.5511891561721478  1.0000
  N   N2        1.0  0.09665436392696332  0.4472641071666458  0.5166435180499322  1.0000
  C   C12       1.0  0.2506809827734039  0.42413927206640434  0.7232107021323504  1.0000
  C   C13       1.0  0.3238560964908165  0.40244221338054004  0.7650759599519015  1.0000
  C   C14       1.0  0.5199475129844902  0.3818047268368512  0.6420532064213214  1.0000
  H   H1        1.0  0.6614552581140247  0.279058912213628  0.8401439842381717  1.0000
  H   H2        1.0  0.5528680362908248  0.2055670324389467  0.9820232560170405  1.0000
  H   H3        1.0  0.4238334802610851  0.24215031682551566  0.9091609234394072  1.0000
  H   H4        1.0  0.4029317031115007  0.31475771939740405  0.47990051741306305  1.0000
  H   H5        1.0  0.2745842129590005  0.3541670412119095  0.40697328835408825  1.0000
  H   H6        1.0  0.2082725049785385  0.45458735961649455  0.7914139713825108  1.0000
  H   H7        1.0  0.3367550110785734  0.41791175010893705  0.8649287590755108  1.0000
  H   H8        1.0  0.5114491401366846  0.43257711954316824  0.5475531064587844  1.0000
  C   C15       1.0  0.9020572878849388  0.06117432717279802  0.5256706541815166  1.0000
  C   C16       1.0  0.9065561008858337  0.04978141444079087  0.66197574878445  1.0000
  C   C17       1.0  0.9087633539583526  0.9268681600747124  0.7310513397153431  1.0000
  C   C18       1.0  0.9064124469690875  0.8144901569052381  0.6619976042599516  1.0000
  C   C19       1.0  0.9019156404973926  0.8238911705159453  0.5256916671777547  1.0000
  C   C20       1.0  0.8997628103162492  0.9476730386286208  0.4582912142909421  1.0000
  C   C21       1.0  0.9135143113609481  0.9158794490187271  0.8752471345080475  1.0000
  C   C22       1.0  0.8705095729016373  0.8214072457516486  0.9512850912631308  1.0000
  C   C23       1.0  0.8750033429250499  0.8113005848978175  0.0869858310939221  1.0000
  C   C24       1.0  0.9223143343681739  0.8953837953491736  0.14846398587034115  1.0000
  C   C25       1.0  0.9654981965764763  0.9892871605250086  0.07379078241310233  1.0000
  C   C26       1.0  0.9611145879438421  0.9997463802108264  0.9380745163934241  1.0000
  S   S1        1.0  0.9281633045814387  0.881957032723647  0.3225828611601753  1.0000
  C   C27       1.0  0.8526688615171821  0.9961944487333944  0.34561430432017415  1.0000
  H   H9        1.0  0.9003725918255266  0.3929697436416066  0.4737308544239238  1.0000
  H   H10       1.0  0.907317940701281  0.1366541223303488  0.7148987068032917  1.0000
  H   H11       1.0  0.909133155208305  0.7195655310075101  0.7146335398033963  1.0000
  H   H12       1.0  0.89629268102371  0.9556937105634062  0.3531376056441837  1.0000
  H   H13       1.0  0.9001646456615334  0.5000187051951701  0.47375960926582095  1.0000
  H   H14       1.0  0.8326966280972359  0.7565045247557608  0.9059254046181113  1.0000
  H   H15       1.0  0.8414086982302911  0.7384470029317431  0.14426600120190103  1.0000
  H   H16       1.0  0.0025113940309615663  0.054227034273691015  0.12077650890871983  1.0000
  H   H17       1.0  0.9956572541287072  0.07225464596911868  0.8821634026643626  1.0000
  H   H18       1.0  0.867713742276891  0.09286807273941443  0.2960386289559134  1.0000
  H   H19       1.0  0.8439516236151593  0.00670819847521065  0.4512979857508983  1.0000
  H   H20       1.0  0.7998097806242588  0.9593601691302557  0.3059447553411072  1.0000
  C   C28       1.0  0.9020300229977676  0.44236506326266406  0.14430814707328699  1.0000
  C   C29       1.0  0.8295341516554668  0.4945573791768007  0.14276431287820945  1.0000
  C   C30       1.0  0.7927324063806391  0.5211928123994658  0.024827685652748073  1.0000
  C   C31       1.0  0.8294033917912375  0.4949317944753551  0.907458052702971  1.0000
  C   C32       1.0  0.9019428700820885  0.4427003933908652  0.9070541737363967  1.0000
  C   C33       1.0  0.9378103521478888  0.41674053902248537  0.02592650727684997  1.0000
  C   C34       1.0  0.7160405543609384  0.5764062726688801  0.024239903627750522  1.0000
  C   C35       1.0  0.6969399945120368  0.6757537457004003  0.9298232255209439  1.0000
  C   C36       1.0  0.6247452489570317  0.7276811422454122  0.9293988503431594  1.0000
  C   C37       1.0  0.5707039758944472  0.681046514106765  0.02313336919484854  1.0000
  C   C38       1.0  0.589123546151915  0.5822408399417991  0.11741956109232876  1.0000
  C   C39       1.0  0.6612967547136891  0.5302253286337036  0.11809449882416433  1.0000
  C   C40       1.0  0.496389828610342  0.7345521601333209  0.022567993721125175  1.0000
  C   C41       1.0  0.4341527788907806  0.7793623280576516  0.022094414622210398  1.0000
  C   C42       1.0  0.3612738408297198  0.8318346355743548  0.021539856968568305  1.0000
  C   C43       1.0  0.2990468486954444  0.8766377998141212  0.02106646092429365  1.0000
  H   H21       1.0  0.9298990770626281  0.4222267111794284  0.4723831553399976  1.0000
  H   H22       1.0  0.8019262353165455  0.5162812135491543  0.23334952382943738  1.0000
  H   H23       1.0  0.8008932446177884  0.5136183848460883  0.8164083190093736  1.0000
  H   H24       1.0  0.9937273723976606  0.37647968857601954  0.026401874092359723  1.0000
  H   H25       1.0  0.03866872697542668  0.34335345399854234  0.6990664887446321  1.0000
  H   H26       1.0  0.7381185149771321  0.7144551081810706  0.8573669548153786  1.0000
  H   H27       1.0  0.6111445877546755  0.8043992838733449  0.8561789073288701  1.0000
  H   H28       1.0  0.5476533144883438  0.5451735736872527  0.19022080573907751  1.0000
  H   H29       1.0  0.6740097410724389  0.4527240068865781  0.1909625958896903  1.0000
  H   H30       1.0  0.2444064118970729  0.9159786147633925  0.020650787488763145  1.0000
  Zn  Zn1       1.0  0.8196673407397208  0.44053564256311306  0.5295024175736114  1.0000
  Zn  Zn2       1.0  0.9842983698772498  0.4445290625356979  0.521859619327822  1.0000
  C   C44       1.0  0.9019586363053186  0.43746340291846275  0.7628787608137373  1.0000
  C   C45       1.0  0.9020088717584444  0.4476029844403757  0.28848332014149314  1.0000
  C   C46       1.0  0.9019391191333241  0.6797190877656263  0.5205126303967404  1.0000
  C   C47       1.0  0.9020283330352817  0.2053457379808976  0.5308495223628718  1.0000
  O   O1        1.0  0.9644783918375592  0.45087069504459776  0.3339694230202208  1.0000
  O   O2        1.0  0.9644402582635666  0.4372256257992257  0.7115915770317622  1.0000
  O   O3        1.0  0.964423655531384  0.6328501352189423  0.5158792510759926  1.0000
  O   O4        1.0  0.9644949384017228  0.2552461935094701  0.5296816542085034  1.0000
  O   O5        1.0  0.8394707160347576  0.6298185102279938  0.5216803852942109  1.0000
  O   O6        1.0  0.8394873184816076  0.43419556105924423  0.7173926420468788  1.0000
  O   O7        1.0  0.839525452292361  0.44784058436396273  0.3397689266143482  1.0000
  O   O8        1.0  0.8395419988440536  0.2522160735828986  0.5354812551713983  1.0000
