data_image0
_chemical_formula_structural       NC12NC2H8C7OC4NC3H8C7OC3OC4H12Zn2C4O8
_chemical_formula_sum              "N3 C46 H28 O11 Zn2"
_cell_length_a       19.240039667572717
_cell_length_b       10.299371701877257
_cell_length_c       10.299374482448636
_cell_angle_alpha    85.56746279880974
_cell_angle_beta     89.98179719486372
_cell_angle_gamma    90.00851160782973

_space_group_name_H-M_alt    "P 1"
_space_group_IT_number       1

loop_
  _space_group_symop_operation_xyz
  'x, y, z'

loop_
  _atom_site_type_symbol
  _atom_site_label
  _atom_site_symmetry_multiplicity
  _atom_site_fract_x
  _atom_site_fract_y
  _atom_site_fract_z
  _atom_site_occupancy
  N   N1        1.0  0.6548337164758552  0.42162034618311006  0.5679492243057225  1.0000
  C   C1        1.0  0.5946853476791838  0.4216204301841837  0.5679491423983436  1.0000
  C   C2        1.0  0.5198673105706939  0.42162054750302586  0.5679490051341454  1.0000
  C   C3        1.0  0.4833708853961344  0.3571303392895197  0.6713397038347902  1.0000
  C   C4        1.0  0.4107001137656  0.3570194369954407  0.6714262062016374  1.0000
  C   C5        1.0  0.3735350756794432  0.4216206401228908  0.5679487774802745  1.0000
  C   C6        1.0  0.41074571596226916  0.4862220301907707  0.46447154337878793  1.0000
  C   C7        1.0  0.4834163808559094  0.4861108923672088  0.46455816815930323  1.0000
  C   C8        1.0  0.2963299852497946  0.4216205614842894  0.5679486820308852  1.0000
  C   C9        1.0  0.25912605506603387  0.3083494093294532  0.6097768384123907  1.0000
  C   C10       1.0  0.186455390709278  0.30845633173424963  0.6096855513441438  1.0000
  C   C11       1.0  0.14999769830597368  0.42162043229643714  0.5679487428930741  1.0000
  C   C12       1.0  0.0751796610996894  0.42162031849370596  0.5679489915183447  1.0000
  N   N2        1.0  0.015031344208897002  0.4216202776201379  0.5679491999291102  1.0000
  C   C13       1.0  0.1864875167743033  0.5347846086991357  0.5262118815788841  1.0000
  C   C14       1.0  0.2591582370615297  0.5348917112643603  0.5261204319804185  1.0000
  H   H1        1.0  0.5110680525659733  0.3072004551631455  0.7520643884212648  1.0000
  H   H2        1.0  0.38358898189040797  0.3078873731409622  0.7532667470349461  1.0000
  H   H3        1.0  0.3836703170601313  0.5353541211099405  0.3826309517057922  1.0000
  H   H4        1.0  0.5111489850942768  0.5360406761647065  0.3838337593389081  1.0000
  H   H5        1.0  0.2862069444634531  0.2191862804832272  0.6409108639393767  1.0000
  H   H6        1.0  0.1587280587012026  0.22019213821553962  0.6418529294992144  1.0000
  H   H7        1.0  0.15878502533016428  0.6230487776774272  0.49404451796521265  1.0000
  H   H8        1.0  0.2862638264952267  0.6240549192981735  0.4949863617111293  1.0000
  C   C15       1.0  0.8348995352276865  0.04024991883735263  0.56782219839033  1.0000
  C   C16       1.0  0.8382996369308799  0.04962325004355293  0.4311553283805592  1.0000
  C   C17       1.0  0.8392253760290614  0.9371820011018073  0.3621619482487915  1.0000
  C   C18       1.0  0.8383081807036602  0.8143548589494586  0.4314727288414433  1.0000
  C   C19       1.0  0.8349721982991402  0.8029807138524634  0.5680874142650525  1.0000
  C   C20       1.0  0.833104317778918  0.916530038223382  0.6354558667898571  1.0000
  C   C21       1.0  0.8435455703015142  0.9469358204786893  0.21790987478867363  1.0000
  O   O1        1.0  0.8770062044281274  0.8612020373629531  0.16296320646657472  1.0000
  C   C22       1.0  0.8098950591749491  0.05386854600913615  0.13599651137533897  1.0000
  C   C23       1.0  0.8396821528817021  0.0985413089071978  0.016024500669830962  1.0000
  C   C24       1.0  0.8078641577532834  0.19846323324253887  0.9372325857779826  1.0000
  C   C25       1.0  0.8389999721096061  0.24432056603009555  0.8150743941025969  1.0000
  N   N3        1.0  0.8640317784637237  0.2811802279338438  0.7168769225871731  1.0000
  C   C26       1.0  0.7457403435339046  0.2536321352210562  0.9774050180457552  1.0000
  C   C27       1.0  0.7153668303444174  0.20874915846826414  0.09563745386738987  1.0000
  C   C28       1.0  0.7469852713102639  0.1091247113011764  0.17441797101562906  1.0000
  H   H9        1.0  0.8410103818914064  0.14455953601528868  0.37826793881252874  1.0000
  H   H10       1.0  0.839536952444597  0.7275299184713606  0.3784597013912257  1.0000
  H   H11       1.0  0.8304834680317718  0.9084999930521394  0.7408162823370276  1.0000
  H   H12       1.0  0.8342756433760046  0.4711508615300443  0.6206134441948339  1.0000
  H   H13       1.0  0.8878869397568104  0.0564576498188407  0.9844471457760033  1.0000
  H   H14       1.0  0.7206953618917917  0.3308626677975204  0.9171646619396739  1.0000
  H   H15       1.0  0.6670435628871486  0.25084927655903067  0.12606178592974218  1.0000
  H   H16       1.0  0.7218602450815423  0.0743934280770473  0.2645756122137186  1.0000
  C   C29       1.0  0.8350002593975465  0.4217028167402388  0.18657230283657733  1.0000
  C   C30       1.0  0.9075992774225617  0.43636717094297284  0.1842060161635466  1.0000
  C   C31       1.0  0.9441285577336594  0.44523485688693176  0.06572525059395184  1.0000
  C   C32       1.0  0.9074331408248341  0.43630330000740103  0.9489671432318337  1.0000
  C   C33       1.0  0.8348714626599264  0.4215278232069105  0.9493372694197206  1.0000
  C   C34       1.0  0.7990552457965262  0.4146541066709963  0.06864620299573088  1.0000
  C   C35       1.0  0.020869546831685074  0.4593608824911246  0.06319113687701905  1.0000
  O   O2        1.0  0.05496297380531968  0.4058187106235358  0.977325382072035  1.0000
  C   C36       1.0  0.058930321569646824  0.5342424458662314  0.15798499158504312  1.0000
  C   C37       1.0  0.12673612947192647  0.4975245059889388  0.1961364946524744  1.0000
  C   C38       1.0  0.1638669624117446  0.5677887294877452  0.284364259748658  1.0000
  O   O3        1.0  0.23110779248334  0.5258964209116547  0.31964291905158393  1.0000
  C   C39       1.0  0.274660048492815  0.5877672574784414  0.4080567522976795  1.0000
  C   C40       1.0  0.13280777450152104  0.6771756061776234  0.3343169568625493  1.0000
  C   C41       1.0  0.06581357127460108  0.715226762047869  0.29565536297983264  1.0000
  C   C42       1.0  0.029083863711935942  0.6447295287299604  0.20766854934378134  1.0000
  H   H17       1.0  0.6981156020088001  0.39204184376878093  0.3985130119394749  1.0000
  H   H18       1.0  0.9359067962910258  0.4394591596399479  0.2747983669486038  1.0000
  H   H19       1.0  0.9355805933046755  0.4421588895757089  0.8575755624293122  1.0000
  H   H20       1.0  0.7430867069899127  0.40334810954588884  0.06966672140097742  1.0000
  H   H21       1.0  0.8070619411445629  0.4147682472361866  0.6221061440984679  1.0000
  H   H22       1.0  0.1508314761409677  0.41321221896410093  0.15822866379407619  1.0000
  H   H23       1.0  0.324684250625459  0.5344099283400444  0.4179968763157026  1.0000
  H   H24       1.0  0.2495624796600557  0.5859663193428655  0.5052908351246403  1.0000
  H   H25       1.0  0.285355094976544  0.6897732304822823  0.3704306797659427  1.0000
  H   H26       1.0  0.16004901820877657  0.7336134571609914  0.40252752821802584  1.0000
  H   H27       1.0  0.04237101715562375  0.8000280998151488  0.33359229480547414  1.0000
  H   H28       1.0  0.9776916209101227  0.6774563863647882  0.17745576826578827  1.0000
  Zn  Zn1       1.0  0.7587789787193882  0.4216168574637264  0.5679567047582348  1.0000
  Zn  Zn2       1.0  0.9110860979376447  0.42161317038659596  0.5679523150705087  1.0000
  C   C43       1.0  0.8348937711289882  0.41638721197924106  0.8051565950725111  1.0000
  C   C44       1.0  0.8349729688516301  0.42684445442753555  0.33075255274908155  1.0000
  C   C45       1.0  0.8349557580324989  0.6588095609228166  0.5628619303292435  1.0000
  C   C46       1.0  0.8349109298160129  0.18442054516068307  0.5730472861923867  1.0000
  O   O4        1.0  0.8927635673434796  0.42856297001481386  0.37913909388882483  1.0000
  O   O5        1.0  0.8927007519467398  0.4146649183451838  0.7567663480613209  1.0000
  O   O6        1.0  0.8927500277588615  0.6104240306752338  0.5611116924981916  1.0000
  O   O7        1.0  0.892714239576582  0.23280386699861944  0.5747936520785448  1.0000
  O   O8        1.0  0.7771507851055073  0.6104261608543767  0.5611153677448655  1.0000
  O   O9        1.0  0.7771015094505488  0.41466860885027657  0.7567699546026253  1.0000
  O   O10       1.0  0.7771643251528432  0.4285666156219685  0.3791411389580606  1.0000
  O   O11       1.0  0.7771149973657785  0.232807503294592  0.5747957945158575  1.0000
