data_image0
_chemical_formula_structural       NC9NC3NH7C8NH7C6NO2H3Zn2C4O8
_chemical_formula_sum              "N5 C30 H17 O10 Zn2"
_cell_length_a       16.053384444249904
_cell_length_b       9.274263428431858
_cell_length_c       9.273395971720358
_cell_angle_alpha    84.92461197253164
_cell_angle_beta     89.67931749283619
_cell_angle_gamma    89.79185309571561

_space_group_name_H-M_alt    "P 1"
_space_group_IT_number       1

loop_
  _space_group_symop_operation_xyz
  'x, y, z'

loop_
  _atom_site_type_symbol
  _atom_site_label
  _atom_site_symmetry_multiplicity
  _atom_site_fract_x
  _atom_site_fract_y
  _atom_site_fract_z
  _atom_site_occupancy
  N   N1        1.0  0.7960448246015577  0.5757525549129776  0.40316638064928867  1.0000
  C   C1        1.0  0.7452481757776699  0.5535067938120071  0.31998257646155115  1.0000
  C   C2        1.0  0.6821218089940141  0.5258659628064455  0.21664801800557276  1.0000
  C   C3        1.0  0.6958341278798815  0.5139670487228687  0.07133478950024341  1.0000
  C   C4        1.0  0.619106325841229  0.4864456435184266  0.013270247206375705  1.0000
  C   C5        1.0  0.5618584796007157  0.4830867300149691  0.12629012524254501  1.0000
  C   C6        1.0  0.471055471688841  0.45675111724470796  0.11491918259707258  1.0000
  C   C7        1.0  0.4153263908598955  0.5030974230446237  0.21927143838681887  1.0000
  C   C8        1.0  0.3296351804150315  0.4781216653381437  0.20838004153717885  1.0000
  C   C9        1.0  0.2731348452118683  0.5263782173246268  0.3153674895569274  1.0000
  N   N2        1.0  0.227725215941671  0.5651696975318687  0.4013686425385177  1.0000
  C   C10       1.0  0.29894622855306  0.40667508188064266  0.09315172028403995  1.0000
  C   C11       1.0  0.3536672947785795  0.36045915976638915  0.9890346583003313  1.0000
  C   C12       1.0  0.4391519361000268  0.3852554664229632  0.9994853482526876  1.0000
  N   N3        1.0  0.6010534613165546  0.5073062774602413  0.2502759659988316  1.0000
  H   H1        1.0  0.7546987275310965  0.5241541454198481  0.01395138221535852  1.0000
  H   H2        1.0  0.6068889670166223  0.47232139634491693  0.9008148761503172  1.0000
  H   H3        1.0  0.4378975808663368  0.5604302343732901  0.30793265843338014  1.0000
  H   H4        1.0  0.232811355362421  0.38682024620145383  0.0837927385973003  1.0000
  H   H5        1.0  0.3298174301882451  0.30495227340243125  0.9001121512380035  1.0000
  H   H6        1.0  0.4801263073146374  0.34674181747580946  0.9180919225424783  1.0000
  H   H7        1.0  0.574779178981699  0.5088616568167448  0.3533852228593506  1.0000
  C   C13       1.0  0.009252758379421076  0.14693902136606907  0.4025852538430572  1.0000
  C   C14       1.0  0.9986439977420506  0.23193898161491358  0.27069223434079603  1.0000
  C   C15       1.0  0.9962036381322094  0.16845514568125886  0.1399595214292333  1.0000
  C   C16       1.0  0.004988783344645144  0.01847927976689801  0.1378833631152181  1.0000
  C   C17       1.0  0.013363156506691173  0.9320387506997188  0.26890073713104745  1.0000
  C   C18       1.0  0.014525156251794952  0.993971893343771  0.4019622278685502  1.0000
  C   C19       1.0  0.0011148556471041139  0.9500598931894905  0.9970427657851523  1.0000
  C   C20       1.0  0.9147287472204539  0.9135769705230059  0.965317358271776  1.0000
  N   N4        1.0  0.8465460224957336  0.8847803320284742  0.9402867172886099  1.0000
  H   H8        1.0  0.08073747677554648  0.21997158148843116  0.7351234827351523  1.0000
  H   H9        1.0  0.9940422103035444  0.34869542984570895  0.26834694963798067  1.0000
  H   H10       1.0  0.9882394029363213  0.2366248333308425  0.039946078994494316  1.0000
  H   H11       1.0  0.016962027214246996  0.8154808517289767  0.2669841419005379  1.0000
  H   H12       1.0  0.059409414414962614  0.69301202357218  0.6278200319076865  1.0000
  H   H13       1.0  0.03959213566045494  0.8499428832056093  0.002469330521060798  1.0000
  H   H14       1.0  0.02582102346081162  0.02520699590595575  0.9070993231237839  1.0000
  C   C21       1.0  0.012390544944766543  0.5748744288096186  0.978331784062016  1.0000
  C   C22       1.0  0.9383550997291438  0.6096130481753905  0.04920344696706569  1.0000
  C   C23       1.0  0.8640016169559904  0.6307202694922132  0.9730699892567093  1.0000
  C   C24       1.0  0.8615731921387525  0.617527947792611  0.8237948674095112  1.0000
  C   C25       1.0  0.9355795074798117  0.5852616589738748  0.7514838941484641  1.0000
  C   C26       1.0  0.01138734185237577  0.5660364381632453  0.8262156994388428  1.0000
  N   N5        1.0  0.7844720242090661  0.6382218249781851  0.7459651091723596  1.0000
  O   O1        1.0  0.7122778228579458  0.6709913815399638  0.8170183631083772  1.0000
  O   O2        1.0  0.7817453157541777  0.6264012725910091  0.612989357253463  1.0000
  H   H15       1.0  0.19365083990877596  0.4088347347386137  0.094113529962778  1.0000
  H   H16       1.0  0.8080924466890312  0.6560092657435146  0.031668837196236366  1.0000
  H   H17       1.0  0.13500941761998875  0.4584274296719444  0.5543257998160205  1.0000
  Zn  Zn1       1.0  0.9206184246663227  0.5726946377001882  0.4026559243727479  1.0000
  Zn  Zn2       1.0  0.1031515053193166  0.5682157418934901  0.4018909065972276  1.0000
  C   C27       1.0  0.011539363905711975  0.5619615264122948  0.6659516994233114  1.0000
  C   C28       1.0  0.012232570494878912  0.5789506225326526  0.13859526354996543  1.0000
  C   C29       1.0  0.013531075344928926  0.8339246853945156  0.3963271068375309  1.0000
  C   C30       1.0  0.010240785893149034  0.3069857315122855  0.4082199346392386  1.0000
  O   O3        1.0  0.0814498664903438  0.5786126207851021  0.19209083566035345  1.0000
  O   O4        1.0  0.08086044631720135  0.5588990661968869  0.6118750817436411  1.0000
  O   O5        1.0  0.08246784291943787  0.7785127637844975  0.3941513184025507  1.0000
  O   O6        1.0  0.07984240779422125  0.3589989361712119  0.4098144910100925  1.0000
  O   O7        1.0  0.9439274599018548  0.7819114449525432  0.39473234021335135  1.0000
  O   O8        1.0  0.9423200741725675  0.5622994809331543  0.6124560253044173  1.0000
  O   O9        1.0  0.9429094961418871  0.5820130033541064  0.19267004355466488  1.0000
  O   O10       1.0  0.9413020372500871  0.3623993072965719  0.4103938071492237  1.0000
