data_image0
_chemical_formula_structural       NC9NC3NH7C8NH7C7NC2NH8Zn2C4O8
_chemical_formula_sum              "N6 C33 H22 Zn2 O8"
_cell_length_a       16.053384444249904
_cell_length_b       9.274263428431858
_cell_length_c       9.27399911348925
_cell_angle_alpha    85.02669958396683
_cell_angle_beta     89.45501548333611
_cell_angle_gamma    89.79185309571561

_space_group_name_H-M_alt    "P 1"
_space_group_IT_number       1

loop_
  _space_group_symop_operation_xyz
  'x, y, z'

loop_
  _atom_site_type_symbol
  _atom_site_label
  _atom_site_symmetry_multiplicity
  _atom_site_fract_x
  _atom_site_fract_y
  _atom_site_fract_z
  _atom_site_occupancy
  N   N1        1.0  0.7996607524425812  0.5728781076474003  0.403474697399227  1.0000
  C   C1        1.0  0.7490524680355242  0.5504826080542096  0.3203069543463777  1.0000
  C   C2        1.0  0.6861600957659699  0.5226557653468693  0.2169923477343696  1.0000
  C   C3        1.0  0.7002014671857106  0.5104952740975393  0.0717071763176389  1.0000
  C   C4        1.0  0.6236051485981281  0.4828693473807733  0.01365384512976808  1.0000
  C   C5        1.0  0.5661013760553202  0.47971388004443005  0.12665190127976755  1.0000
  C   C6        1.0  0.4753241169175144  0.4533577985324054  0.11528315413671787  1.0000
  C   C7        1.0  0.4193587370637919  0.49989194798282854  0.21961526158541966  1.0000
  C   C8        1.0  0.3336921894921409  0.47489658476108826  0.20872596764746576  1.0000
  C   C9        1.0  0.2769495880395408  0.5233457239862698  0.3156927585230651  1.0000
  N   N2        1.0  0.2313452146459372  0.5622920141724776  0.4016773063958597  1.0000
  C   C10       1.0  0.3032641648112135  0.4032425797357231  0.0935198946868725  1.0000
  C   C11       1.0  0.3582209974801434  0.3568392373414277  0.9894229356329705  1.0000
  C   C12       1.0  0.4436819738810261  0.38165435620034605  0.9998716077653605  1.0000
  N   N3        1.0  0.6050155997459955  0.5041566133974977  0.2506138028410143  1.0000
  H   H1        1.0  0.7591960079012291  0.5205790753878079  0.014334848625154883  1.0000
  H   H2        1.0  0.6116424377857791  0.46854267020459167  0.901220186964833  1.0000
  H   H3        1.0  0.4417291593946905  0.5573843576556414  0.3082593629172454  1.0000
  H   H4        1.0  0.2371504844374307  0.38337089702939764  0.0841627200329891  1.0000
  H   H5        1.0  0.3345724922331267  0.301172282292683  0.9005175977346949  1.0000
  H   H6        1.0  0.4848406553146448  0.3429941916067693  0.9184938975036357  1.0000
  H   H7        1.0  0.5785078330781255  0.5058975988922028  0.35370315135881125  1.0000
  C   C13       1.0  0.012870002145016992  0.14406352801883426  0.4028936827970007  1.0000
  C   C14       1.0  0.0025599048345426047  0.2288260687114623  0.2710261292084202  1.0000
  C   C15       1.0  0.0004155811113593099  0.16510690188008906  0.1403186581784579  1.0000
  C   C16       1.0  0.009205427651822529  0.0151272986899611  0.1382429007292392  1.0000
  C   C17       1.0  0.01728312033030388  0.92892261293665  0.2692349779010814  1.0000
  C   C18       1.0  0.01814381081995631  0.9910952784925255  0.4022707771163936  1.0000
  C   C19       1.0  0.0056504245002462206  0.9464543860939556  0.9974294969118241  1.0000
  C   C20       1.0  0.9193361562345902  0.9099143547783474  0.9657102149424093  1.0000
  N   N4        1.0  0.8512101117992337  0.8810726588297034  0.9406844068772023  1.0000
  H   H8        1.0  0.08360170894025676  0.21769468751382637  0.7353677051839724  1.0000
  H   H9        1.0  0.9979634281435994  0.34557829521425876  0.26868129733334367  1.0000
  H   H10       1.0  0.9926778199742549  0.23309655614194563  0.04032452634636896  1.0000
  H   H11       1.0  0.0208863310454659  0.812361263918356  0.26731875272691674  1.0000
  H   H12       1.0  0.06251662839730443  0.6905419735247824  0.628084972514501  1.0000
  H   H13       1.0  0.04411541640400829  0.8463471444253063  0.002855013886223115  1.0000
  H   H14       1.0  0.030560263500792217  0.021439582347730458  0.9075034205368256  1.0000
  C   C21       1.0  0.016968483622119123  0.5712352402274228  0.9787221279063822  1.0000
  C   C22       1.0  0.08192533181890754  0.5005719691881376  0.056985191499713705  1.0000
  C   C23       1.0  0.14130445735269093  0.41977634660585683  0.9881420701979602  1.0000
  C   C24       1.0  0.1373188824580971  0.4068656233500356  0.8388714984833894  1.0000
  C   C25       1.0  0.07363082484981542  0.47993372146646857  0.7590427799716863  1.0000
  C   C26       1.0  0.014045323126712805  0.5639235262665445  0.8264422680687746  1.0000
  C   C27       1.0  0.20070751707226142  0.31904203920343144  0.7679732136167252  1.0000
  N   N5        1.0  0.270146852495748  0.2669395824049823  0.8357586593918795  1.0000
  C   C28       1.0  0.31002090388575954  0.1937874984657175  0.7363208367144227  1.0000
  C   C29       1.0  0.26456625769188524  0.20209095531231047  0.6109629196333449  1.0000
  N   N6        1.0  0.19581555114885196  0.2807992889830951  0.631027600971366  1.0000
  H   H15       1.0  0.9294345574411816  0.7554490811000156  0.2455346178917215  1.0000
  H   H16       1.0  0.08572530826023028  0.5047712750682003  0.17311747639100994  1.0000
  H   H17       1.0  0.1898221764819512  0.365448131656242  0.05270547798542701  1.0000
  H   H18       1.0  0.07154609384044552  0.47608191305601905  0.6429492327947597  1.0000
  H   H19       1.0  0.8845878650776733  0.648509673898821  0.5411613962089818  1.0000
  H   H20       1.0  0.3686032714076801  0.13745093725235868  0.7544843056681315  1.0000
  H   H21       1.0  0.28025492804962204  0.15354113056861052  0.5122390879111962  1.0000
  H   H22       1.0  0.14882836419405598  0.3038153478819653  0.5555023292100563  1.0000
  Zn  Zn1       1.0  0.9242355084030134  0.5698192715664013  0.4029643396816207  1.0000
  Zn  Zn2       1.0  0.10677032138994624  0.5653389986574011  0.40219946961578734  1.0000
  C   C30       1.0  0.014560231160051673  0.5595601168707673  0.666209277565023  1.0000
  C   C31       1.0  0.016447602748946407  0.5755999229419229  0.13895466371019993  1.0000
  C   C32       1.0  0.017162490285102198  0.8310379268075404  0.3966367441149481  1.0000
  C   C33       1.0  0.013845270283616927  0.3041203811083172  0.4085272756486096  1.0000
  O   O1        1.0  0.08554376143478737  0.5753582181404722  0.19243990689168133  1.0000
  O   O2        1.0  0.08400376662178166  0.556400313773836  0.6121431010025786  1.0000
  O   O3        1.0  0.08610418479369031  0.7756220885783818  0.39446137578135554  1.0000
  O   O4        1.0  0.08344328141353219  0.3561364561152528  0.41012152414240455  1.0000
  O   O5        1.0  0.9475624860892904  0.7790218156390831  0.3950422854084228  1.0000
  O   O6        1.0  0.945462078967523  0.559801774261902  0.6127239323947306  1.0000
  O   O7        1.0  0.9470020795070118  0.5787596433369162  0.19301900295249141  1.0000
  O   O8        1.0  0.9449015990449658  0.35953787006290283  0.410700728427134  1.0000
