data_image0
_chemical_formula_structural       NC9NC5H8C7OH6C6BrH5Zn2C4O8
_chemical_formula_sum              "N2 C31 H19 O9 Br1 Zn2"
_cell_length_a       17.807436237873137
_cell_length_b       9.274078303013077
_cell_length_c       10.302972455390005
_cell_angle_alpha    85.73623788158189
_cell_angle_beta     89.39215201277248
_cell_angle_gamma    87.81002060722456

_space_group_name_H-M_alt    "P 1"
_space_group_IT_number       1

loop_
  _space_group_symop_operation_xyz
  'x, y, z'

loop_
  _atom_site_type_symbol
  _atom_site_label
  _atom_site_symmetry_multiplicity
  _atom_site_fract_x
  _atom_site_fract_y
  _atom_site_fract_z
  _atom_site_occupancy
  N   N1        1.0  0.6992612308881524  0.5413834094620344  0.5619838099524783  1.0000
  C   C1        1.0  0.6388803882549959  0.5022984284823351  0.5508525141847642  1.0000
  C   C2        1.0  0.5637732563903942  0.453681016406974  0.5370063910446974  1.0000
  C   C3        1.0  0.5461013423672043  0.37436139697714066  0.4318128985594256  1.0000
  C   C4        1.0  0.4731768411750455  0.3270337985331121  0.41828625424080684  1.0000
  C   C5        1.0  0.4168777528832179  0.35860649938677625  0.5099194704422232  1.0000
  C   C6        1.0  0.3393771318087108  0.30843708803316094  0.4956265601712935  1.0000
  C   C7        1.0  0.2767205834404869  0.3992430840915104  0.5218148359097449  1.0000
  C   C8        1.0  0.2036549698935556  0.3516899721255191  0.5083012276546679  1.0000
  C   C9        1.0  0.13993252436911294  0.44548523729122375  0.5348617768477334  1.0000
  N   N2        1.0  0.0887127007752595  0.5208901413458228  0.556215713719644  1.0000
  C   C10       1.0  0.1926638750809122  0.21304432719377636  0.4685731884027323  1.0000
  C   C11       1.0  0.25446313499068257  0.12222294551559941  0.44237648203378815  1.0000
  C   C12       1.0  0.3274116339267663  0.16933784409150476  0.455686374042454  1.0000
  C   C13       1.0  0.4352381676875897  0.43847520761317216  0.6153336798458965  1.0000
  C   C14       1.0  0.5082166585532852  0.48559133702724244  0.6287041241060171  1.0000
  H   H1        1.0  0.5886283648955879  0.34938767276096905  0.36005286850963714  1.0000
  H   H2        1.0  0.4605796280367215  0.26740974435918585  0.3352238026362613  1.0000
  H   H3        1.0  0.28464558741038476  0.5074966378551969  0.5509898126766779  1.0000
  H   H4        1.0  0.1363987616651109  0.17524073412791563  0.45787443008592477  1.0000
  H   H5        1.0  0.2458349702538052  0.014880280499191214  0.41200407718326804  1.0000
  H   H6        1.0  0.37443862152493196  0.09631530232846773  0.43643685741235316  1.0000
  H   H7        1.0  0.3934311908233484  0.46285020342959027  0.6883860806503792  1.0000
  H   H8        1.0  0.5213350528454234  0.5465710968031886  0.7107291431402778  1.0000
  C   C15       1.0  0.8962303962443331  0.10755129719328592  0.5579023847461516  1.0000
  C   C16       1.0  0.8817002606529424  0.19178017573631004  0.440922333792384  1.0000
  C   C17       1.0  0.8606772917120059  0.1277841997040341  0.32847297204734605  1.0000
  C   C18       1.0  0.8539847744639539  0.9774927180283896  0.33293468041984076  1.0000
  C   C19       1.0  0.8693605533281186  0.8921607422227694  0.4474860210505742  1.0000
  C   C20       1.0  0.8917507842977173  0.9547107888455959  0.5603083061145626  1.0000
  C   C21       1.0  0.8451957054048411  0.2195165475548606  0.2078762663551812  1.0000
  O   O1        1.0  0.8258822183236632  0.16523580135776683  0.10536776224143932  1.0000
  H   H9        1.0  0.8939190004604305  0.18430074344255812  0.8775820054522857  1.0000
  H   H10       1.0  0.8850615421036614  0.30846891518687036  0.4380724268404972  1.0000
  H   H11       1.0  0.8375466193123008  0.9255061494848478  0.24747091569221152  1.0000
  H   H12       1.0  0.8654434711785959  0.7759297150544997  0.44684955289924644  1.0000
  H   H13       1.0  0.8934842256842329  0.6557292486526931  0.7749890813388968  1.0000
  H   H14       1.0  0.8503833659897769  0.335558152849772  0.20643524326029386  1.0000
  C   C22       1.0  0.8939905602792492  0.5311310448411488  0.17786277700595443  1.0000
  C   C23       1.0  0.9166718919174466  0.38403368473545507  0.18607486360702552  1.0000
  C   C24       1.0  0.9279230980901948  0.311065449941887  0.07321066612019589  1.0000
  C   C25       1.0  0.9166720188723567  0.38403362177077954  0.9509924709699292  1.0000
  C   C26       1.0  0.8939905958130714  0.5311310469176873  0.9403478585650702  1.0000
  C   C27       1.0  0.8827594203137211  0.6039693605432666  0.05443668127274792  1.0000
  Br  Br1       1.0  0.9587734628216071  0.11098762378057403  0.08603491355378723  1.0000
  H   H15       1.0  0.8854538213243353  0.5864973482375708  0.5020733657173551  1.0000
  H   H16       1.0  0.9257008029053215  0.3254769233472081  0.27982741978086345  1.0000
  H   H17       1.0  0.9257010995896591  0.32547695604435045  0.8647465128908662  1.0000
  H   H18       1.0  0.8652666688760849  0.7174164873447038  0.047165149060657274  1.0000
  H   H19       1.0  0.885452768049751  0.5864968621950177  0.6090397558347221  1.0000
  Zn  Zn1       1.0  0.8116485316425018  0.5354656460800471  0.560326759350505  1.0000
  Zn  Zn2       1.0  0.9763254439987078  0.5267961466965674  0.5578834040037869  1.0000
  C   C28       1.0  0.894019306396735  0.5253847586529931  0.7962055727927783  1.0000
  C   C29       1.0  0.893956457887364  0.5368787594627773  0.3220046964730925  1.0000
  C   C30       1.0  0.8925936471536409  0.7945798330449295  0.554680107541647  1.0000
  C   C31       1.0  0.8953820701016546  0.26768195500577874  0.5635302268519675  1.0000
  O   O2        1.0  0.9564390761071818  0.5355114222394002  0.36945278290698313  1.0000
  O   O3        1.0  0.956522660044949  0.5201710582680399  0.7469026593736026  1.0000
  O   O4        1.0  0.9553705797268939  0.737549529627106  0.5518691541098562  1.0000
  O   O5        1.0  0.9575911001775931  0.31813296415726633  0.5644861916913821  1.0000
  O   O6        1.0  0.8303828192674603  0.7441288315793926  0.5537239724898826  1.0000
  O   O7        1.0  0.831534890418163  0.5267520932454339  0.748757413452858  1.0000
  O   O8        1.0  0.831451306796076  0.5420924069484614  0.3713059759594185  1.0000
  O   O9        1.0  0.8326033309179747  0.3247139385494405  0.5663394820501385  1.0000
