data_image0
_chemical_formula_structural       NC9NC5H8C7F3H5C7H7Zn2C4O8
_chemical_formula_sum              "N2 C32 H20 F3 Zn2 O8"
_cell_length_a       17.807436237873137
_cell_length_b       9.27228830945605
_cell_length_c       9.27434533087231
_cell_angle_alpha    84.82071203492734
_cell_angle_beta     88.93938532988027
_cell_angle_gamma    87.81380667828488

_space_group_name_H-M_alt    "P 1"
_space_group_IT_number       1

loop_
  _space_group_symop_operation_xyz
  'x, y, z'

loop_
  _atom_site_type_symbol
  _atom_site_label
  _atom_site_symmetry_multiplicity
  _atom_site_fract_x
  _atom_site_fract_y
  _atom_site_fract_z
  _atom_site_occupancy
  N   N1        1.0  0.705765139675281  0.5546807488829355  0.3884759119627941  1.0000
  C   C1        1.0  0.6454295186700723  0.5156526921147682  0.3764255061726822  1.0000
  C   C2        1.0  0.5703786376058388  0.4671060876308913  0.36143610947738924  1.0000
  C   C3        1.0  0.5531632070118577  0.3885859786588399  0.24514642033286838  1.0000
  C   C4        1.0  0.4802936755914752  0.3413277055641334  0.2305014853336631  1.0000
  C   C5        1.0  0.4235931800230436  0.3721701216491445  0.33211233386717876  1.0000
  C   C6        1.0  0.3461506265375168  0.3220738178488858  0.31663911933181904  1.0000
  C   C7        1.0  0.2833875712614167  0.4127448546057062  0.34499929969042875  1.0000
  C   C8        1.0  0.21037684728214034  0.36526075667611857  0.33037073164745134  1.0000
  C   C9        1.0  0.1465465513925328  0.45892067571803086  0.3591199449476905  1.0000
  N   N2        1.0  0.09524001874130836  0.5342167618033794  0.38223353847130315  1.0000
  C   C10       1.0  0.19954723564967536  0.22681904325690086  0.28735528637868946  1.0000
  C   C11       1.0  0.2614530381450347  0.1361326768141744  0.2589858611273377  1.0000
  C   C12       1.0  0.3343475029512199  0.18317985301673834  0.27339158936456553  1.0000
  C   C13       1.0  0.441496192034044  0.4512379869708969  0.4486428418938169  1.0000
  C   C14       1.0  0.5144203815437949  0.49828589372636833  0.4631158788696941  1.0000
  H   H1        1.0  0.5960045556465977  0.3641839328117588  0.16557474684904938  1.0000
  H   H2        1.0  0.4680572110946985  0.28233767015113465  0.1386523031462088  1.0000
  H   H3        1.0  0.2911946336622703  0.5208544523813348  0.3765349484699252  1.0000
  H   H4        1.0  0.1433255628118139  0.1890699483944128  0.275775105240724  1.0000
  H   H5        1.0  0.2529481933258588  0.02894470438208142  0.22611140177034247  1.0000
  H   H6        1.0  0.38145214744420197  0.11025085226678555  0.2525977866777356  1.0000
  H   H7        1.0  0.3993691228739524  0.47503006316930213  0.5296562842889503  1.0000
  H   H8        1.0  0.5271827438037603  0.5586414476536097  0.5538004288814431  1.0000
  C   C15       1.0  0.9027087572501479  0.12049119993220006  0.3875437146142857  1.0000
  C   C16       1.0  0.9388683779571116  0.20147386420815747  0.272969192042507  1.0000
  C   C17       1.0  0.9676263125089094  0.1352580352175501  0.15348133366413452  1.0000
  C   C18       1.0  0.9599661739149177  0.9865264664905105  0.14437872101059224  1.0000
  C   C19       1.0  0.9265406340606381  0.903703627506636  0.26074652242615914  1.0000
  C   C20       1.0  0.8983036054124632  0.968394783102471  0.383178230943879  1.0000
  C   C21       1.0  0.9929530559164956  0.9142227476661983  0.017077102465447472  1.0000
  F   F1        1.0  0.9927932637520823  0.00977784190706732  0.893443498048859  1.0000
  F   F2        1.0  0.9516790405984735  0.7962489570679048  0.9902267915026046  1.0000
  F   F3        1.0  0.06611286271746208  0.8675821102841776  0.04715891153958273  1.0000
  H   H9        1.0  0.7753302291902768  0.20777275438846846  0.6491872197764039  1.0000
  H   H10       1.0  0.9436028074433042  0.3174779392581073  0.2743867222881182  1.0000
  H   H11       1.0  0.9953491478766274  0.2009344989077249  0.06739328031558767  1.0000
  H   H12       1.0  0.9241521926019272  0.7874151590897512  0.2575394913774862  1.0000
  H   H13       1.0  0.8619158733571849  0.8379428675759165  0.733291188088194  1.0000
  C   C22       1.0  0.9021894065473814  0.5475998040926249  0.9615145431400425  1.0000
  C   C23       1.0  0.856913756720873  0.6516431650090726  0.02696773657780738  1.0000
  C   C24       1.0  0.807205433633051  0.7443122902336344  0.9452595232339047  1.0000
  C   C25       1.0  0.801028616218793  0.7340191592867911  0.7964698796245693  1.0000
  C   C26       1.0  0.8474484658973376  0.6339737859946524  0.7289728242304574  1.0000
  C   C27       1.0  0.8988229142450005  0.5412861758840041  0.8092073433294584  1.0000
  C   C28       1.0  0.7487176138230847  0.8359181123946479  0.7082606102408717  1.0000
  H   H14       1.0  0.8587870601863584  0.6592898432644316  0.1427141724185852  1.0000
  H   H15       1.0  0.7728819840954612  0.8232149369225132  0.9985683727111292  1.0000
  H   H16       1.0  0.8446204554993638  0.6308316517857925  0.6126433134998162  1.0000
  H   H17       1.0  0.9607298394361211  0.3293696829342177  0.5454117077113398  1.0000
  H   H18       1.0  0.778887613647109  0.9345440917171361  0.6681286154319079  1.0000
  H   H19       1.0  0.6992470527254024  0.8679175767961647  0.7744745683191225  1.0000
  H   H20       1.0  0.7278816612916126  0.783674786380004  0.6142720832754338  1.0000
  Zn  Zn1       1.0  0.818159162324151  0.5487713698236292  0.38668286500643245  1.0000
  Zn  Zn2       1.0  0.9828459919132124  0.5401142841274409  0.3840385118088292  1.0000
  C   C29       1.0  0.8994874750747348  0.5367282268062041  0.6490049195742502  1.0000
  C   C30       1.0  0.9015194675111676  0.5521591531629559  0.12171656064991888  1.0000
  C   C31       1.0  0.89915523068695  0.8081659839030491  0.37825185184860155  1.0000
  C   C32       1.0  0.9018516644088534  0.28071966390158387  0.3924697151589074  1.0000
  O   O1        1.0  0.9637924561298269  0.5503976950073304  0.17447833536053836  1.0000
  O   O2        1.0  0.9622079868287923  0.5319180711937461  0.5942357320946776  1.0000
  O   O3        1.0  0.9619388468235731  0.7511075259581621  0.3756007200826217  1.0000
  O   O4        1.0  0.96406154031471  0.33120825433070455  0.39311324000133974  1.0000
  O   O5        1.0  0.8369435577231431  0.7576774025762321  0.37760813770871016  1.0000
  O   O6        1.0  0.8372126890189503  0.538489682932209  0.5962430638322143  1.0000
  O   O7        1.0  0.8387971655228458  0.5569692693580138  0.1764839320442102  1.0000
  O   O8        1.0  0.8390662493285547  0.33777981754946435  0.3951189449510546  1.0000
