data_image0
_chemical_formula_structural       NC10NC3NH7C12OCH12C12BrH8Zn2C4O8
_chemical_formula_sum              "N3 C42 H27 O9 Br1 Zn2"
_cell_length_a       19.210446455230148
_cell_length_b       10.29979075500242
_cell_length_c       10.299148005577397
_cell_angle_alpha    85.54790519994738
_cell_angle_beta     89.9640022898858
_cell_angle_gamma    89.92936594805748

_space_group_name_H-M_alt    "P 1"
_space_group_IT_number       1

loop_
  _space_group_symop_operation_xyz
  'x, y, z'

loop_
  _atom_site_type_symbol
  _atom_site_label
  _atom_site_symmetry_multiplicity
  _atom_site_fract_x
  _atom_site_fract_y
  _atom_site_fract_z
  _atom_site_occupancy
  N   N1        1.0  0.6555883600605933  0.4203889220693182  0.56719586444568  1.0000
  C   C1        1.0  0.5953592119659408  0.42259635852437016  0.5674269351828455  1.0000
  C   C2        1.0  0.520554030105818  0.4253331755390938  0.5677132029106724  1.0000
  C   C3        1.0  0.4849108820368755  0.5415590469052927  0.5828210426779661  1.0000
  C   C4        1.0  0.4122453767452896  0.5417105896894545  0.5827684368442523  1.0000
  C   C5        1.0  0.3753870798175637  0.4260421150210344  0.567799661741947  1.0000
  C   C6        1.0  0.298065323265836  0.42468568916520066  0.5676491169726394  1.0000
  C   C7        1.0  0.2602997491514639  0.5282645140987625  0.5042803048996024  1.0000
  C   C8        1.0  0.1875217684245068  0.5268623272687762  0.5041712816054341  1.0000
  C   C9        1.0  0.1515078981815263  0.4221388286339536  0.5673800609591125  1.0000
  C   C10       1.0  0.076578734178083  0.4208367935642225  0.5672432779370957  1.0000
  N   N2        1.0  0.016341168128424108  0.419789913154599  0.5671333392666453  1.0000
  C   C11       1.0  0.1885497891504717  0.3186856978737951  0.6307238584084627  1.0000
  C   C12       1.0  0.2613296757776179  0.31981361375950773  0.6308831408005042  1.0000
  C   C13       1.0  0.41363957006272284  0.3116364185374607  0.5529799270455857  1.0000
  N   N3        1.0  0.48440886915452896  0.3140813201566452  0.553145399737354  1.0000
  H   H1        1.0  0.5129867660861636  0.630989002524277  0.5948664468658234  1.0000
  H   H2        1.0  0.3849509818314341  0.6317221723359892  0.5962086046784718  1.0000
  H   H3        1.0  0.2870181077433743  0.6095246265350901  0.45328410843902667  1.0000
  H   H4        1.0  0.15936634250090412  0.6072945337598199  0.45450557222193144  1.0000
  H   H5        1.0  0.1611921469225648  0.23729012902726823  0.6802901171020962  1.0000
  H   H6        1.0  0.2888398759208228  0.2395003566241618  0.6819866371346228  1.0000
  H   H7        1.0  0.38739999754730964  0.2207619390085953  0.5394935445588551  1.0000
  C   C14       1.0  0.8360306350260082  0.03872156251124448  0.5672035446838621  1.0000
  C   C15       1.0  0.815848119550072  0.02756887838747057  0.6986519383861556  1.0000
  C   C16       1.0  0.8055662544303794  0.9047815400116217  0.7652246957201736  1.0000
  C   C17       1.0  0.8157230775659456  0.7922868028460788  0.6985861715530762  1.0000
  C   C18       1.0  0.8359055623734779  0.801447272394967  0.5671368452929055  1.0000
  C   C19       1.0  0.8459479507403762  0.9251058706568578  0.5021822302150618  1.0000
  C   C20       1.0  0.7842185368656982  0.8940367281916353  0.9042909711412745  1.0000
  C   C21       1.0  0.7334169843635185  0.8032479552875261  0.949367672520185  1.0000
  C   C22       1.0  0.713387797728894  0.7934088137463194  0.08011698125781275  1.0000
  C   C23       1.0  0.7437094291132527  0.8736903919436302  0.16746443293096755  1.0000
  C   C24       1.0  0.7946958308819998  0.9650876563396005  0.1242595024659163  1.0000
  C   C25       1.0  0.8145093522695187  0.9745660489926793  0.9929835040600495  1.0000
  O   O1        1.0  0.8268509469861113  0.04772134496039126  0.20812671420232537  1.0000
  C   C26       1.0  0.8118936712767887  0.04870246083092056  0.34347243700285524  1.0000
  H   H8        1.0  0.8437514961913701  0.37042263731682423  0.5171373519574668  1.0000
  H   H9        1.0  0.807154902785067  0.11460169203127868  0.7490848250243142  1.0000
  H   H10       1.0  0.8087709436561823  0.6973901127201307  0.7499579183545639  1.0000
  H   H11       1.0  0.8615184444441738  0.9329412978970782  0.4007753480516948  1.0000
  H   H12       1.0  0.8435613780326179  0.47748642543863  0.5170330267888121  1.0000
  H   H13       1.0  0.7085358723330177  0.741070720904678  0.8831590190137364  1.0000
  H   H14       1.0  0.6740658251729508  0.7234987305962531  0.11380434347141541  1.0000
  H   H15       1.0  0.7271880478153869  0.8639524007165181  0.26813911181476063  1.0000
  H   H16       1.0  0.8543925970461157  0.044048750785091746  0.96080898071816  1.0000
  H   H17       1.0  0.8239055680500753  0.9521454590466167  0.39409556349598496  1.0000
  H   H18       1.0  0.8447312097053223  0.12328027156194409  0.38568325140550497  1.0000
  H   H19       1.0  0.7563210908497091  0.07370310722630323  0.35791830411917325  1.0000
  C   C27       1.0  0.836062959556548  0.4201363149714996  0.1857820030347965  1.0000
  C   C28       1.0  0.7705771686936733  0.4810247267123433  0.18035100361257347  1.0000
  C   C29       1.0  0.7372764679536162  0.5118433505635795  0.06045912658328589  1.0000
  C   C30       1.0  0.77034485819355  0.48095230758409974  0.9450740153253423  1.0000
  C   C31       1.0  0.8358732045115546  0.42003255844676013  0.9485583984394905  1.0000
  C   C32       1.0  0.868328622249868  0.3899977104768068  0.06933618029345089  1.0000
  C   C33       1.0  0.6680009018072914  0.5762578729043992  0.05575870062403143  1.0000
  C   C34       1.0  0.6533625586951396  0.6775997160314522  0.13583039073137845  1.0000
  C   C35       1.0  0.5881289667320039  0.738116852755744  0.13121154186434267  1.0000
  C   C36       1.0  0.536792198314286  0.698258470333152  0.046859283692232565  1.0000
  C   C37       1.0  0.5507312693556438  0.597704652050511  0.9669351806265366  1.0000
  C   C38       1.0  0.6159057170185454  0.536965648585288  0.9711615206883859  1.0000
  Br  Br1       1.0  0.4477240591249053  0.7810768295657216  0.04081725274788805  1.0000
  H   H20       1.0  0.7448873124351032  0.5030135703176059  0.26969304769467284  1.0000
  H   H21       1.0  0.745341703295769  0.5060887249308965  0.8522596794105664  1.0000
  H   H22       1.0  0.9188404541627901  0.3430368955866161  0.07280920334731666  1.0000
  H   H23       1.0  0.9597487669592877  0.3057846409297135  0.7477859939586335  1.0000
  H   H24       1.0  0.6926340790980856  0.711151546525983  0.20072822545338798  1.0000
  H   H25       1.0  0.5776043498225036  0.8162004863645177  0.19301104330740548  1.0000
  H   H26       1.0  0.5110476146973988  0.5663054872539928  0.9017302281517106  1.0000
  H   H27       1.0  0.6252656615709974  0.4581946590217238  0.909563375389882  1.0000
  Zn  Zn1       1.0  0.7596938256424497  0.4202125959717304  0.5671853207790759  1.0000
  Zn  Zn2       1.0  0.9122356856963882  0.41995565528697065  0.5671545201735153  1.0000
  C   C39       1.0  0.835908376615015  0.4148785018103993  0.8043778074914913  1.0000
  C   C40       1.0  0.8360228001757345  0.4252913852402333  0.32996216045446625  1.0000
  C   C41       1.0  0.8359268909119806  0.6572766116665549  0.5619740579218555  1.0000
  C   C42       1.0  0.8360042340655729  0.18289171516406524  0.5723659794130961  1.0000
  O   O2        1.0  0.8938981641617878  0.4269183005379953  0.3783386502123314  1.0000
  O   O3        1.0  0.8938087550852042  0.413055594809171  0.7559775670073436  1.0000
  O   O4        1.0  0.8938229249089561  0.6087951351912548  0.5602348242226853  1.0000
  O   O5        1.0  0.8938839423085324  0.23117876954703134  0.5740812956270919  1.0000
  O   O6        1.0  0.7780455169752566  0.6089894818007664  0.5602585453291785  1.0000
  O   O7        1.0  0.7780313469096523  0.4132515017277909  0.7560012187285217  1.0000
  O   O8        1.0  0.7781207564283779  0.42711416241311445  0.37836074045774803  1.0000
  O   O9        1.0  0.7781065345495775  0.23137462212012627  0.5741034832460858  1.0000
