data_image0
_chemical_formula_structural       NC6NC3H6C7NH3C6ClH4Zn2C4O8
_chemical_formula_sum              "N3 C26 H13 Cl1 Zn2 O8"
_cell_length_a       14.934028789175542
_cell_length_b       9.275154477615127
_cell_length_c       9.276548810779733
_cell_angle_alpha    86.30571482512589
_cell_angle_beta     89.70021891901104
_cell_angle_gamma    89.3962875590186

_space_group_name_H-M_alt    "P 1"
_space_group_IT_number       1

loop_
  _space_group_symop_operation_xyz
  'x, y, z'

loop_
  _atom_site_type_symbol
  _atom_site_label
  _atom_site_symmetry_multiplicity
  _atom_site_fract_x
  _atom_site_fract_y
  _atom_site_fract_z
  _atom_site_occupancy
  N   N1        1.0  0.8383204981861485  0.5625875074801766  0.41622762114936473  1.0000
  C   C1        1.0  0.7608432415037946  0.5614833794266152  0.4155446506862839  1.0000
  C   C2        1.0  0.664457668716632  0.5601047692855166  0.41469208786693335  1.0000
  C   C3        1.0  0.6158415243090404  0.6674708715300863  0.48098327976001  1.0000
  C   C4        1.0  0.5223385997424064  0.6663639528759805  0.4802997045544915  1.0000
  C   C5        1.0  0.4765388343222644  0.5579457256990399  0.4133589681504062  1.0000
  C   C6        1.0  0.3798745690080905  0.5602719600549984  0.4147965433564216  1.0000
  N   N2        1.0  0.30237976836656755  0.5621181232959074  0.4159377687648784  1.0000
  C   C7        1.0  0.5251612188046647  0.44909423185040387  0.3461500973879734  1.0000
  C   C8        1.0  0.4777820830108392  0.33122109361015317  0.2733728325925795  1.0000
  C   C9        1.0  0.6192862319519341  0.45133065390854776  0.3475309864433451  1.0000
  H   H1        1.0  0.6502132552817259  0.7520654062259238  0.5332151790188766  1.0000
  H   H2        1.0  0.48563556551547576  0.7503069856790603  0.5321292028049107  1.0000
  H   H3        1.0  0.4349999331643677  0.3794726306115255  0.18498965842901294  1.0000
  H   H4        1.0  0.4351803936523002  0.2691192148934505  0.3532110011807359  1.0000
  H   H5        1.0  0.5258479232087698  0.25487289750408637  0.22622664758556052  1.0000
  H   H6        1.0  0.6574734472990692  0.36850431627433067  0.2963912602414538  1.0000
  C   C10       1.0  0.0729506936361739  0.13894565763124334  0.4144135518068113  1.0000
  C   C11       1.0  0.04875805313123234  0.2209894293598671  0.28737527898159465  1.0000
  C   C12       1.0  0.01726153274257736  0.15388451483675736  0.167071775602337  1.0000
  C   C13       1.0  0.009437334258374227  0.0038204043464018494  0.17238980374275115  1.0000
  C   C14       1.0  0.034468693524231306  0.9205416728568575  0.2965314719585188  1.0000
  C   C15       1.0  0.067758211653802  0.9857489848474236  0.41776427650388404  1.0000
  C   C16       1.0  0.991882243638138  0.23949732076324604  0.03850291940237116  1.0000
  N   N3        1.0  0.971484343268758  0.3083144042152654  0.935166491292141  1.0000
  H   H7        1.0  0.08923815611176028  0.2188290616517867  0.7681180498132347  1.0000
  H   H8        1.0  0.9847531532065628  0.9508746470246706  0.0799293037654536  1.0000
  H   H9        1.0  0.08252840883320299  0.6891272014567766  0.6547539418782662  1.0000
  C   C17       1.0  0.0716402693690361  0.5584832345204469  0.9929234658252507  1.0000
  C   C18       1.0  0.14641751749732035  0.6132163367120644  0.06219989040211837  1.0000
  C   C19       1.0  0.21610666045847882  0.6787008660879066  0.9821830298780879  1.0000
  C   C20       1.0  0.21206305634607447  0.6905546600844155  0.8317928721726  1.0000
  C   C21       1.0  0.1392430977295498  0.63480820354557  0.7608621206471224  1.0000
  C   C22       1.0  0.06906860878972076  0.5662113261173087  0.8392543487310902  1.0000
  Cl  Cl1       1.0  0.3081245257142606  0.7480328353935759  0.07090445846714544  1.0000
  H   H10       1.0  0.9639849344756575  0.3972093746194296  0.285354898751381  1.0000
  H   H11       1.0  0.26581226502717636  0.7417919571553135  0.7694728012843335  1.0000
  H   H12       1.0  0.13886866161287445  0.6423318755229837  0.6438438033643115  1.0000
  H   H13       1.0  0.9255540700506476  0.5134955029427497  0.5625389339574682  1.0000
  Zn  Zn1       1.0  0.9722379912671543  0.5624482655703071  0.41615227587330206  1.0000
  Zn  Zn2       1.0  0.16846234197451526  0.5622456620141021  0.4160248486812579  1.0000
  C   C23       1.0  0.06958794825535097  0.5590066271820415  0.6792569381776781  1.0000
  C   C24       1.0  0.07111451616499465  0.5656891187259949  0.15292033362013946  1.0000
  C   C25       1.0  0.0687525370047512  0.8256326802593164  0.4113885356524001  1.0000
  C   C26       1.0  0.07194987084669724  0.2990613341247259  0.42078880616136227  1.0000
  O   O1        1.0  0.14540422561969335  0.5680243020224003  0.20656836119652122  1.0000
  O   O2        1.0  0.1442279885953216  0.556516580969282  0.6255117771889871  1.0000
  O   O3        1.0  0.14355237505342133  0.7718205054945315  0.40920615352047696  1.0000
  O   O4        1.0  0.14607977246857604  0.35272038689395724  0.4228738769027831  1.0000
  O   O5        1.0  0.9946204938113662  0.7719735407610913  0.40930324768768744  1.0000
  O   O6        1.0  0.9952960969604362  0.5566713478304754  0.6256088013761645  1.0000
  O   O7        1.0  0.9964723396168557  0.5681790028187086  0.2066636526608776  1.0000
  O   O8        1.0  0.9971478861970289  0.35287507836409815  0.42296927636529924  1.0000
