data_image0
_chemical_formula_structural       NC12NC2H8C6SCNH5C10H6Zn2C4O8
_chemical_formula_sum              "N3 C35 H19 S1 Zn2 O8"
_cell_length_a       17.80743265337812
_cell_length_b       9.27526961838325
_cell_length_c       10.302835742178797
_cell_angle_alpha    85.81845029597457
_cell_angle_beta     91.5341157365678
_cell_angle_gamma    88.87871087483882

_space_group_name_H-M_alt    "P 1"
_space_group_IT_number       1

loop_
  _space_group_symop_operation_xyz
  'x, y, z'

loop_
  _atom_site_type_symbol
  _atom_site_label
  _atom_site_symmetry_multiplicity
  _atom_site_fract_x
  _atom_site_fract_y
  _atom_site_fract_z
  _atom_site_occupancy
  N   N1        1.0  0.6996040866000609  0.5617270501279774  0.6077962396654337  1.0000
  C   C1        1.0  0.6486197119157502  0.5945425780764975  0.5392464567400577  1.0000
  C   C2        1.0  0.585190146995839  0.6353627129549856  0.45397916274838623  1.0000
  C   C3        1.0  0.5966160719748742  0.695335252308373  0.3276319919884332  1.0000
  C   C4        1.0  0.5351022240147411  0.7344861007339216  0.2447534696557474  1.0000
  C   C5        1.0  0.46200668087806523  0.7139569007976656  0.2875635594776864  1.0000
  C   C6        1.0  0.4496046454134044  0.653852474997318  0.41437821007621517  1.0000
  C   C7        1.0  0.5119757912875308  0.6147052387019933  0.49724024010074097  1.0000
  C   C8        1.0  0.3719471005541211  0.6320864045032235  0.46004288857673403  1.0000
  C   C9        1.0  0.3530114396947007  0.6622741201473334  0.5871608861312827  1.0000
  C   C10       1.0  0.2798857201181645  0.6417910782739383  0.6300117026858543  1.0000
  C   C11       1.0  0.2247541121782773  0.5908380426284074  0.546581126381668  1.0000
  C   C12       1.0  0.1494948712082436  0.569741271532467  0.5908300455270892  1.0000
  N   N2        1.0  0.0889917713968  0.5527808864272274  0.626403132365243  1.0000
  C   C13       1.0  0.24299922338537297  0.5604628095369821  0.4200051969751095  1.0000
  C   C14       1.0  0.31607200311743894  0.5809622586390628  0.37689864170944976  1.0000
  H   H1        1.0  0.6529990653444196  0.711792210931151  0.2932696991765533  1.0000
  H   H2        1.0  0.5440654943896313  0.7812211601698693  0.1471865367883245  1.0000
  H   H3        1.0  0.41520206490668926  0.7468575851767089  0.22212101394646022  1.0000
  H   H4        1.0  0.5037185995775706  0.5664321365391016  0.5946768605465711  1.0000
  H   H5        1.0  0.3944819733367175  0.7035545507482632  0.652870722259169  1.0000
  H   H6        1.0  0.2663220183615885  0.6660483169215851  0.7280811138055066  1.0000
  H   H7        1.0  0.2008047739623459  0.5205893921948246  0.35471358270017284  1.0000
  H   H8        1.0  0.3291158454110331  0.5550001888184383  0.27912591600690595  1.0000
  C   C15       1.0  0.8964182809859186  0.13383940917052417  0.615488259982649  1.0000
  C   C16       1.0  0.86962062729145  0.21746124002706232  0.5038646821556987  1.0000
  C   C17       1.0  0.8370969753267478  0.15224795593114004  0.39892511581771095  1.0000
  C   C18       1.0  0.8308756942939376  0.0022912699599053586  0.4034480118078179  1.0000
  C   C19       1.0  0.858052872158879  0.9171293694021507  0.5127689239957494  1.0000
  C   C20       1.0  0.892184832745249  0.9806573134213361  0.6187225562923682  1.0000
  S   S1        1.0  0.7881770962338256  0.9190318653677694  0.26911104912953476  1.0000
  C   C21       1.0  0.8745999139385193  0.9008002566585289  0.1913132672342206  1.0000
  N   N3        1.0  0.9312712226973056  0.888859984571184  0.14033700782594027  1.0000
  H   H9        1.0  0.9775136380871795  0.39846691692126796  0.781740355843291  1.0000
  H   H10       1.0  0.8721757505959247  0.3343198815180437  0.49894842437607717  1.0000
  H   H11       1.0  0.8161773184092667  0.2187065341483738  0.3144131679441491  1.0000
  H   H12       1.0  0.8542005206128875  0.800627184020256  0.5134477294531865  1.0000
  H   H13       1.0  0.016476044216231944  0.8533594495507162  0.8610699710201064  1.0000
  C   C22       1.0  0.8943015303353208  0.5572483140528333  0.23585782075573494  1.0000
  C   C23       1.0  0.8570390247622441  0.692645054773697  0.22414437501743256  1.0000
  C   C24       1.0  0.8385004302934037  0.7600073166070177  0.1012132812976605  1.0000
  C   C25       1.0  0.8570392148289706  0.6926451167734233  0.9888418311818836  1.0000
  C   C26       1.0  0.894301565676626  0.5572484040643568  0.9983530168098597  1.0000
  C   C27       1.0  0.9127386143279932  0.49025543513919234  0.12235626455903037  1.0000
  C   C28       1.0  0.8003027414022198  0.898801979649594  0.09033474724212187  1.0000
  C   C29       1.0  0.7683228217671411  0.015003324227269136  0.08122692793220221  1.0000
  C   C30       1.0  0.7308746619820543  0.151073956216766  0.07056184311204072  1.0000
  C   C31       1.0  0.6988995506435907  0.2672574737826672  0.06145555042864714  1.0000
  H   H14       1.0  0.9084121938040431  0.5059761380006371  0.5676157336889904  1.0000
  H   H15       1.0  0.8423396767962307  0.7460565287496361  0.3103762248450277  1.0000
  H   H16       1.0  0.8423398952164707  0.7460566815125147  0.8942373582832234  1.0000
  H   H17       1.0  0.941474902733102  0.3858390342538369  0.1305403852807563  1.0000
  H   H18       1.0  0.9084119826183896  0.505975855062025  0.6746323690128246  1.0000
  H   H19       1.0  0.6708227309430254  0.36927628733278306  0.05345948832390924  1.0000
  Zn  Zn1       1.0  0.811972983779417  0.5591415309879433  0.6131732568155719  1.0000
  Zn  Zn2       1.0  0.976622930522247  0.5553546441900741  0.621036659975255  1.0000
  C   C32       1.0  0.8943286049684456  0.5515043416878704  0.8542030966752401  1.0000
  C   C33       1.0  0.894269098210503  0.5629936114133469  0.3800070403581626  1.0000
  C   C34       1.0  0.8929811697157864  0.8205907765108595  0.6129375305893654  1.0000
  C   C35       1.0  0.8956164859399768  0.2939054455580721  0.6212726663609651  1.0000
  O   O1        1.0  0.9567420418488615  0.5634783915030526  0.43136893176922775  1.0000
  O   O2        1.0  0.9568211666053067  0.5481443144051403  0.8088089684339845  1.0000
  O   O3        1.0  0.955732253286751  0.7654350329601187  0.6139852823239487  1.0000
  O   O4        1.0  0.9578308989319734  0.3461876845547338  0.6261925178917167  1.0000
  O   O5        1.0  0.8307649591827364  0.7683084919171315  0.6080173962088937  1.0000
  O   O6        1.0  0.8318538638375238  0.5510195056882883  0.8028410197117851  1.0000
  O   O7        1.0  0.8317747393821495  0.5663535325395033  0.42539942195346964  1.0000
  O   O8        1.0  0.8328635965137511  0.3490628152783741  0.6202231053732896  1.0000
