data_image0
_chemical_formula_structural       NC9NC4H8C7ONH7C8NH7Zn2C4O8
_chemical_formula_sum              "N4 C32 H22 O9 Zn2"
_cell_length_a       16.32274767691083
_cell_length_b       10.297852080636378
_cell_length_c       9.274266800404106
_cell_angle_alpha    85.98589005779941
_cell_angle_beta     89.02225532851281
_cell_angle_gamma    89.50344002776104

_space_group_name_H-M_alt    "P 1"
_space_group_IT_number       1

loop_
  _space_group_symop_operation_xyz
  'x, y, z'

loop_
  _atom_site_type_symbol
  _atom_site_label
  _atom_site_symmetry_multiplicity
  _atom_site_fract_x
  _atom_site_fract_y
  _atom_site_fract_z
  _atom_site_occupancy
  N   N1        1.0  0.7782903317213374  0.40141614567137074  0.39804918165209946  1.0000
  C   C1        1.0  0.7262427679582802  0.35355973986995237  0.33778126090061766  1.0000
  C   C2        1.0  0.6615468077493374  0.29412171119655484  0.26292802140672  1.0000
  C   C3        1.0  0.6735888190889471  0.21282106238800003  0.1605373455605812  1.0000
  C   C4        1.0  0.5944619491035478  0.17314594130138872  0.11057409945638996  1.0000
  C   C5        1.0  0.5351794962976306  0.2312096227119658  0.1837024789616224  1.0000
  C   C6        1.0  0.4453343431694176  0.2158639401449607  0.16437922227322632  1.0000
  C   C7        1.0  0.38933118028378433  0.2835408551462455  0.24960686432759946  1.0000
  C   C8        1.0  0.3047015786893457  0.2704256953491333  0.233091984625605  1.0000
  C   C9        1.0  0.24827397482214458  0.34018311741276097  0.32093882909594385  1.0000
  N   N2        1.0  0.2029251937041726  0.39625660303448873  0.39155281348567494  1.0000
  C   C10       1.0  0.2750227572003653  0.18952417090043006  0.13121231981955495  1.0000
  C   C11       1.0  0.3297034605906055  0.12193690148461411  0.04609794685024804  1.0000
  C   C12       1.0  0.4141763924690626  0.13469879831863918  0.06216781818505202  1.0000
  C   C13       1.0  0.5724240481555575  0.31587283558318613  0.29032511245703185  1.0000
  H   H1        1.0  0.7326866205710344  0.18120705686984873  0.12071993374904455  1.0000
  H   H2        1.0  0.5865666029316018  0.10669902096842643  0.026890122640292887  1.0000
  H   H3        1.0  0.4110634907599575  0.34669813435732055  0.3291412362585906  1.0000
  H   H4        1.0  0.209696022136487  0.17871999792556004  0.11760773378809453  1.0000
  H   H5        1.0  0.3065716570377909  0.05935203114439336  0.9672846961937488  1.0000
  H   H6        1.0  0.4542830567774203  0.08063333632928726  0.9940822363565749  1.0000
  H   H7        1.0  0.5551546627234392  0.28188564278011086  0.4029974579632314  1.0000
  H   H8        1.0  0.5557299604685821  0.4197887645047383  0.26572162501681085  1.0000
  C   C14       1.0  0.9906989964242726  0.017398158557522695  0.3948082084817466  1.0000
  C   C15       1.0  0.9801559214005489  0.026053817693694862  0.24438087651692353  1.0000
  C   C16       1.0  0.9740857174523222  0.91335946108037  0.16823594796804198  1.0000
  C   C17       1.0  0.9799490002204052  0.7908037892059404  0.24433431302777797  1.0000
  C   C18       1.0  0.9905242969258907  0.7802645460106382  0.3948060883038458  1.0000
  C   C19       1.0  0.9956360397530387  0.8940778747033731  0.46909697460437133  1.0000
  C   C20       1.0  0.9631534320805087  0.925099623554709  0.009332102491506735  1.0000
  O   O1        1.0  0.9853636501997818  0.027453207859483346  0.9372097488108793  1.0000
  N   N3        1.0  0.9268783291454188  0.8232318816104391  0.9354629948632631  1.0000
  H   H9        1.0  0.010922487877351506  0.20830829421050634  0.679034925281156  1.0000
  H   H10       1.0  0.9759259604449202  0.12084248883858241  0.18633944010210812  1.0000
  H   H11       1.0  0.9778887622694399  0.7032412282774829  0.18655130368220774  1.0000
  H   H12       1.0  0.0037596747964385746  0.8866533263354793  0.5850332197128216  1.0000
  H   H13       1.0  0.01182564072996106  0.5530715457416966  0.6788849615321502  1.0000
  H   H14       1.0  0.9232517646424561  0.8315920604201587  0.8228909472189723  1.0000
  H   H15       1.0  0.8986498548355086  0.743810248222465  0.9912838293134199  1.0000
  C   C21       1.0  0.9924968163017084  0.3959684389843532  0.9714676253288124  1.0000
  C   C22       1.0  0.9449036011435447  0.30356173302651235  0.05334579922786787  1.0000
  C   C23       1.0  0.8923499625625497  0.2213172870934157  0.9862532949245834  1.0000
  C   C24       1.0  0.8856374797611155  0.2302273676007434  0.8356580696544222  1.0000
  C   C25       1.0  0.9343562409643802  0.3195150196230405  0.7524564445234909  1.0000
  C   C26       1.0  0.988726483509497  0.4016942620494118  0.8181466860981841  1.0000
  C   C27       1.0  0.829849802686552  0.14018260168850172  0.763430314124915  1.0000
  C   C28       1.0  0.8742464870074899  0.020892747589368096  0.7315367528028718  1.0000
  N   N4        1.0  0.9092917354901934  0.9267454409632226  0.7063624653730822  1.0000
  H   H16       1.0  0.08269148423960804  0.6807471276780916  0.049521270392431926  1.0000
  H   H17       1.0  0.9469970557621031  0.29680913294321476  0.17032783696230336  1.0000
  H   H18       1.0  0.8562069451511489  0.15133895789874718  0.05205064845011487  1.0000
  H   H19       1.0  0.9311646710679499  0.3225175248939538  0.6356142570972878  1.0000
  H   H20       1.0  0.05242935124186343  0.5908676999361537  0.5208309482779492  1.0000
  H   H21       1.0  0.8064678278384444  0.18802776440801441  0.6610186953846324  1.0000
  H   H22       1.0  0.7761172795314074  0.11414712926683036  0.8344140845778876  1.0000
  Zn  Zn1       1.0  0.9008307502037061  0.39992378320987704  0.3961827955199715  1.0000
  Zn  Zn2       1.0  0.08038473124398315  0.39773838645683846  0.3934310096959457  1.0000
  C   C29       1.0  0.989438532118965  0.395437364755737  0.6581062853827682  1.0000
  C   C30       1.0  0.9917789090472775  0.40222642092061395  0.13150763127375176  1.0000
  C   C31       1.0  0.9905787074484066  0.6360277607779035  0.3890618823905303  1.0000
  C   C32       1.0  0.9906386724636754  0.16163446557795272  0.4005521120677342  1.0000
  O   O2        1.0  0.05967777416336361  0.40349164337678123  0.18417423088858564  1.0000
  O   O3        1.0  0.05781698608846586  0.3925124940237572  0.6033507290133895  1.0000
  O   O4        1.0  0.05873676685427571  0.5867923028097077  0.3860954841374171  1.0000
  O   O5        1.0  0.058757932607150336  0.20921184389748235  0.401429368612529  1.0000
  O   O6        1.0  0.9224574875676106  0.5884503265163644  0.38818443753485465  1.0000
  O   O7        1.0  0.9215377067830327  0.39417207779804003  0.6054396055405489  1.0000
  O   O8        1.0  0.9233985026409897  0.4051511701648778  0.1862613741781689  1.0000
  O   O9        1.0  0.9224786606022515  0.21087136212605873  0.4035166199856084  1.0000
