data_image0
_chemical_formula_structural       NC4NC6H6C6NH7C6NH7Zn2C4O8
_chemical_formula_sum              "N4 C26 H20 Zn2 O8"
_cell_length_a       11.002025771509814
_cell_length_b       9.274771166103582
_cell_length_c       9.274774538082514
_cell_angle_alpha    84.9550519661537
_cell_angle_beta     90.35916991174172
_cell_angle_gamma    90.54760006603236

_space_group_name_H-M_alt    "P 1"
_space_group_IT_number       1

loop_
  _space_group_symop_operation_xyz
  'x, y, z'

loop_
  _atom_site_type_symbol
  _atom_site_label
  _atom_site_symmetry_multiplicity
  _atom_site_fract_x
  _atom_site_fract_y
  _atom_site_fract_z
  _atom_site_occupancy
  N   N1        1.0  0.1503075857251286  0.5913367776121767  0.40546399669403077  1.0000
  C   C1        1.0  0.09656424279819076  0.6854224613632103  0.4479204210764991  1.0000
  C   C2        1.0  0.029355645999042276  0.8032557524802922  0.501083306475717  1.0000
  C   C3        1.0  0.9070799065552902  0.8005149034352004  0.501515140626775  1.0000
  C   C4        1.0  0.8366843153001046  0.6840325144346764  0.4482985944248783  1.0000
  N   N2        1.0  0.780206690510704  0.5906758204216475  0.40564599830852854  1.0000
  C   C5        1.0  0.09824622658821469  0.9257857167652269  0.5567068838019287  1.0000
  C   C6        1.0  0.20857473080599642  0.9004857148399288  0.6321798090726234  1.0000
  C   C7        1.0  0.2741102793300114  0.015223428079650157  0.6840722422145782  1.0000
  C   C8        1.0  0.23084464776051772  0.15643883077664575  0.6608228669790017  1.0000
  C   C9        1.0  0.12205077714623226  0.18330878475898071  0.585332197896544  1.0000
  C   C10       1.0  0.0560463084941556  0.06902039918830605  0.5332510188917807  1.0000
  H   H1        1.0  0.8569427563561574  0.8863978138771575  0.5452535049247389  1.0000
  H   H2        1.0  0.24353880946232592  0.7917912558184177  0.6523664480398632  1.0000
  H   H3        1.0  0.35851600397486116  0.9945461490725767  0.7424955292789939  1.0000
  H   H4        1.0  0.2817837883006109  0.24509926764521195  0.7009870187896272  1.0000
  H   H5        1.0  0.08901228928983507  0.2929489243382468  0.5665853224655308  1.0000
  H   H6        1.0  0.9731389072940846  0.09313537875264412  0.4728069849961169  1.0000
  C   C11       1.0  0.46153540641666946  0.1674068010113885  0.4063405896985408  1.0000
  C   C12       1.0  0.43291223412624197  0.2518691143606935  0.2772673580792535  1.0000
  C   C13       1.0  0.4156330403343256  0.18796851545929202  0.1473785427306884  1.0000
  C   C14       1.0  0.4270359693833288  0.038236257791094186  0.1456222153688853  1.0000
  C   C15       1.0  0.45340259244007636  0.9524723181620952  0.2729218198044492  1.0000
  C   C16       1.0  0.46899049411622284  0.014594604131896949  0.40478193064173507  1.0000
  N   N3        1.0  0.38774943715545906  0.275541898961545  0.01688702607175863  1.0000
  H   H7        1.0  0.5999246259447468  0.24417228609812547  0.7222422417279042  1.0000
  H   H8        1.0  0.42678100971571564  0.36847308212337704  0.2767111894982097  1.0000
  H   H9        1.0  0.4143166367912281  0.9876323070122187  0.04568604267918874  1.0000
  H   H10       1.0  0.45873809859677506  0.8363386862521267  0.26878993157510367  1.0000
  H   H11       1.0  0.5572858157556042  0.7155649292158581  0.6197052119801063  1.0000
  H   H12       1.0  0.3793749474002226  0.38762499573133113  0.016837729683441216  1.0000
  H   H13       1.0  0.3751565618161863  0.22893436145776636  0.9193244056428641  1.0000
  C   C17       1.0  0.4631141160103327  0.5946923799714461  0.9817375121910921  1.0000
  C   C18       1.0  0.5499871508214405  0.6797266514426152  0.04834228658869577  1.0000
  C   C19       1.0  0.6422084674871467  0.7528727338386489  0.9674690719221847  1.0000
  C   C20       1.0  0.6483013628804004  0.7413159461885771  0.8185146970535708  1.0000
  C   C21       1.0  0.561846241617393  0.6594589477875668  0.7502016263178022  1.0000
  C   C22       1.0  0.467411754850783  0.5873089491941823  0.8293849748522524  1.0000
  N   N4        1.0  0.7304750735172933  0.8377048580062798  0.037079863805902676  1.0000
  H   H14       1.0  0.27895371540886715  0.31289966224057575  0.10812414438178797  1.0000
  H   H15       1.0  0.5478594967255919  0.6865703293035301  0.16434919679820026  1.0000
  H   H16       1.0  0.7194959662824809  0.7969741655757868  0.7549018138233405  1.0000
  H   H17       1.0  0.567230830085597  0.6554407781176792  0.6340375249300965  1.0000
  H   H18       1.0  0.3396790402725165  0.4019069482881119  0.5636081170577425  1.0000
  H   H19       1.0  0.727025159880454  0.8467544261338459  0.1484321240409212  1.0000
  H   H20       1.0  0.7999053690687221  0.8922305627868075  0.977757245430101  1.0000
  Zn  Zn1       1.0  0.33208287641767265  0.5911421053088552  0.40552485583474707  1.0000
  Zn  Zn2       1.0  0.598431358596343  0.5908585865076161  0.4055969682496423  1.0000
  C   C23       1.0  0.4665461361891101  0.5829580288460768  0.6691720279532782  1.0000
  C   C24       1.0  0.46397102407648694  0.5990444787110005  0.14194993522623212  1.0000
  C   C25       1.0  0.46754589318932327  0.8545081481012105  0.3993252406562584  1.0000
  C   C26       1.0  0.4629711613295391  0.32749262580122074  0.4117968026336618  1.0000
  O   O1        1.0  0.565336415773265  0.600391195765682  0.19574606581937282  1.0000
  O   O2        1.0  0.5673330678991189  0.5813950429891963  0.6154302155532205  1.0000
  O   O3        1.0  0.568139029351258  0.800675186886266  0.39752702247162097  1.0000
  O   O4        1.0  0.5645303629765774  0.38111106322692234  0.41364915064275176  1.0000
  O   O5        1.0  0.3659837811457485  0.8008896286879366  0.39747267340943426  1.0000
  O   O6        1.0  0.36517783454865427  0.5816112185438997  0.6153757863484215  1.0000
  O   O7        1.0  0.36318117326357635  0.6006073361675024  0.1956899014878699  1.0000
  O   O8        1.0  0.3623751209197472  0.38132719236882084  0.4135930945372668  1.0000
