data_image0
_chemical_formula_structural       NC5NC3H4C7NH5C7F3H5Zn2C4O8
_chemical_formula_sum              "N3 C26 H14 F3 Zn2 O8"
_cell_length_a       13.859018345313864
_cell_length_b       9.275154477615127
_cell_length_c       9.272721663655245
_cell_angle_alpha    86.10781498077147
_cell_angle_beta     90.51617892937593
_cell_angle_gamma    89.43370600770291

_space_group_name_H-M_alt    "P 1"
_space_group_IT_number       1

loop_
  _space_group_symop_operation_xyz
  'x, y, z'

loop_
  _atom_site_type_symbol
  _atom_site_label
  _atom_site_symmetry_multiplicity
  _atom_site_fract_x
  _atom_site_fract_y
  _atom_site_fract_z
  _atom_site_occupancy
  N   N1        1.0  0.8886612153976627  0.5691382403953815  0.415674226008367  1.0000
  C   C1        1.0  0.8168744223227341  0.5298878379145178  0.4667900673368162  1.0000
  C   C2        1.0  0.7275758245111531  0.48106559476349847  0.5303713748471888  1.0000
  C   C3        1.0  0.6392722180299545  0.5286615656589031  0.4683873875398335  1.0000
  C   C4        1.0  0.5523455212021943  0.4810653036867248  0.5303712480988461  1.0000
  C   C5        1.0  0.4616345428570597  0.5298877247138666  0.4667899695421538  1.0000
  N   N2        1.0  0.388712312649835  0.5691382061228369  0.41567415682248043  1.0000
  C   C6        1.0  0.5539051153264279  0.3858589951564771  0.6543576419644013  1.0000
  C   C7        1.0  0.6420235308602313  0.33844624312481586  0.7161031002441336  1.0000
  C   C8        1.0  0.7287704581552578  0.3858592913805825  0.6543578468660294  1.0000
  H   H1        1.0  0.6382062565456091  0.6023538454155335  0.3724185838867169  1.0000
  H   H2        1.0  0.4871515174113816  0.3483960950257134  0.7031448433114273  1.0000
  H   H3        1.0  0.6430872666113295  0.2649035730845455  0.811877261502135  1.0000
  H   H4        1.0  0.7966077781352129  0.3483966272200535  0.7031452708733505  1.0000
  C   C9        1.0  0.14147353290700315  0.1457396909357216  0.41400556529314003  1.0000
  C   C10       1.0  0.1142266404448693  0.22821664429467517  0.2868657560285848  1.0000
  C   C11       1.0  0.07917178505793321  0.16151328225396155  0.16646073256505556  1.0000
  C   C12       1.0  0.07079001081856728  0.011422120692168308  0.171777488143942  1.0000
  C   C13       1.0  0.09891382244908309  0.9277214875560932  0.29601924661540946  1.0000
  C   C14       1.0  0.1359093637972872  0.9925257090218395  0.4173553240043897  1.0000
  C   C15       1.0  0.05063201240039206  0.24756358555306268  0.03778855711683105  1.0000
  N   N3        1.0  0.02769393524682016  0.31673230538215535  0.9343690871377683  1.0000
  H   H5        1.0  0.16230349831807578  0.224365479729012  0.7679608458584017  1.0000
  H   H6        1.0  0.11814153133135785  0.3451524155312509  0.2825872022724114  1.0000
  H   H7        1.0  0.04333402055394897  0.9587844991287858  0.07923866560681003  1.0000
  H   H8        1.0  0.09384635310164555  0.8112531914167164  0.29589234426018485  1.0000
  H   H9        1.0  0.1540223209371856  0.6950651885809961  0.6545154298759908  1.0000
  C   C16       1.0  0.1361538533070114  0.5667941615264123  0.9922279470388377  1.0000
  C   C17       1.0  0.17799471175490456  0.44886229827287677  0.07448376763568976  1.0000
  C   C18       1.0  0.22823621160565546  0.33950663657149377  0.008146170155927111  1.0000
  C   C19       1.0  0.23369328310262816  0.346146024750267  0.8570226150757145  1.0000
  C   C20       1.0  0.1913003026839808  0.461076011975911  0.7737866177192014  1.0000
  C   C21       1.0  0.1412290603732345  0.5714712364852674  0.8391328763092596  1.0000
  C   C22       1.0  0.2703680094666754  0.2120393657913485  0.0979892874169963  1.0000
  F   F1        1.0  0.3025872354450836  0.2539438306006252  0.23038800083086097  1.0000
  F   F2        1.0  0.34767271470179906  0.15240196108847237  0.028633453222196122  1.0000
  F   F3        1.0  0.20021117067580207  0.10825761846603267  0.12061445980757092  1.0000
  H   H10       1.0  0.07273567683066375  0.9101301940501687  0.06980551184242278  1.0000
  H   H11       1.0  0.1732104833167198  0.4437399806457987  0.19130913858390075  1.0000
  H   H12       1.0  0.2699135373211661  0.26144902655501956  0.8027797084073187  1.0000
  H   H13       1.0  0.19543193163097627  0.46153714439034266  0.6571338241599851  1.0000
  H   H14       1.0  0.9664775989326627  0.814655069732293  0.7188040256453267  1.0000
  Zn  Zn1       1.0  0.032965234176026904  0.5691344064474186  0.41568252720093124  1.0000
  Zn  Zn2       1.0  0.24440841907005595  0.5691302725007478  0.41567765250425714  1.0000
  C   C23       1.0  0.14030530788804918  0.5648432957442624  0.6790270063075894  1.0000
  C   C24       1.0  0.1370706432052966  0.5734232031477366  0.15233332207299233  1.0000
  C   C25       1.0  0.1369217041858972  0.8324333733617281  0.4109758675844264  1.0000
  C   C26       1.0  0.14045418659993625  0.3058313936969944  0.4203845308243721  1.0000
  O   O1        1.0  0.2176199543241452  0.5756401111144156  0.2060642737105789  1.0000
  O   O2        1.0  0.22023648630114098  0.5626221602202806  0.6252919354858619  1.0000
  O   O3        1.0  0.21750311081047835  0.7787045403363838  0.4088387504160007  1.0000
  O   O4        1.0  0.220353256947877  0.35955774071670077  0.4225173507030686  1.0000
  O   O5        1.0  0.05702032414296831  0.7787069382344041  0.4088428289962045  1.0000
  O   O6        1.0  0.059753687785905715  0.5626262899545167  0.6252959440319334  1.0000
  O   O7        1.0  0.057137145813819235  0.5756441810307538  0.20606654835868676  1.0000
  O   O8        1.0  0.05987044914924432  0.3595618009175891  0.42251973342263294  1.0000
