data_image0
_chemical_formula_structural       NC11NC3H8C7OC3FC3H8C7OC3FC3H9Zn2C4O8
_chemical_formula_sum              "N2 C44 H25 O10 F2 Zn2"
_cell_length_a       17.807433833752565
_cell_length_b       10.29937835083307
_cell_length_c       10.29938172300155
_cell_angle_alpha    85.56710995607625
_cell_angle_beta     88.50784037207825
_cell_angle_gamma    90.70491928007121

_space_group_name_H-M_alt    "P 1"
_space_group_IT_number       1

loop_
  _space_group_symop_operation_xyz
  'x, y, z'

loop_
  _atom_site_type_symbol
  _atom_site_label
  _atom_site_symmetry_multiplicity
  _atom_site_fract_x
  _atom_site_fract_y
  _atom_site_fract_z
  _atom_site_occupancy
  N   N1        1.0  0.7079527710306314  0.4381612731923268  0.5344434934949214  1.0000
  C   C1        1.0  0.6571151375161811  0.40345023082061116  0.6010108651327313  1.0000
  C   C2        1.0  0.5938679977906389  0.36027255451092377  0.6838121807557367  1.0000
  C   C3        1.0  0.6055617386265224  0.2967512764168445  0.8065397882818779  1.0000
  C   C4        1.0  0.5442227166149718  0.25525285871588066  0.8870569297788945  1.0000
  C   C5        1.0  0.47103543570622247  0.27696260246983173  0.8454873046127644  1.0000
  C   C6        1.0  0.4583650093204532  0.34063831976334386  0.7222994780579364  1.0000
  C   C7        1.0  0.3806102428737459  0.36367752228995687  0.6779490105140968  1.0000
  C   C8        1.0  0.3618444644135748  0.3467709918094479  0.5483714705792606  1.0000
  C   C9        1.0  0.2886272401786061  0.36844199444815323  0.5067577797661313  1.0000
  C   C10       1.0  0.23323292171175009  0.40733785679609597  0.5939013092678089  1.0000
  C   C11       1.0  0.15787933681838393  0.4296670011765984  0.5509262292910893  1.0000
  N   N2        1.0  0.0973004271470738  0.4476179743693307  0.5163773927126447  1.0000
  C   C12       1.0  0.251307267803708  0.4244548360323937  0.7229476850287142  1.0000
  C   C13       1.0  0.3244716810534292  0.40274896800278914  0.7648168097532455  1.0000
  C   C14       1.0  0.5205613395686741  0.3821321765824133  0.6417987530300455  1.0000
  H   H1        1.0  0.6620184212562743  0.27934467429977894  0.8399078434743708  1.0000
  H   H2        1.0  0.553394951176753  0.20582294245863175  0.9818002126997882  1.0000
  H   H3        1.0  0.4243785546995191  0.2424214861532335  0.9089313743794949  1.0000
  H   H4        1.0  0.4035275370799435  0.3151099957303267  0.47965983706087867  1.0000
  H   H5        1.0  0.2751993216212005  0.3545347622805897  0.40672556488829126  1.0000
  H   H6        1.0  0.20890724203436684  0.45489261948060716  0.7911447335248571  1.0000
  H   H7        1.0  0.3373715185248257  0.4182016284956636  0.8646660404476701  1.0000
  H   H8        1.0  0.5120878271773749  0.43292456465741364  0.5472895825927493  1.0000
  C   C15       1.0  0.9025509935423675  0.0615028327107785  0.5254779427993956  1.0000
  C   C16       1.0  0.8241693634370082  0.059602677603759036  0.5130902042777548  1.0000
  C   C17       1.0  0.7845402033462018  0.9413545288089642  0.5083239546734049  1.0000
  C   C18       1.0  0.8243530620010047  0.8243631381928239  0.5130885556923686  1.0000
  C   C19       1.0  0.9027093649168224  0.824266623073358  0.5253538009129917  1.0000
  C   C20       1.0  0.9413317183061759  0.9433449931802779  0.5318205341734099  1.0000
  C   C21       1.0  0.7018676724348829  0.9393123867216138  0.4938658454454188  1.0000
  O   O1        1.0  0.6728605536719792  0.8539006775840553  0.4285510342706751  1.0000
  C   C22       1.0  0.6521019865461227  0.034065618619248506  0.5535137465517357  1.0000
  C   C23       1.0  0.5851902603286652  0.07242254030566753  0.4928378928944481  1.0000
  C   C24       1.0  0.5374580650061089  0.16053365197703284  0.5491134301079219  1.0000
  F   F1        1.0  0.47336688682305345  0.1976514215518899  0.4893680565610907  1.0000
  C   C25       1.0  0.5557237785295595  0.2103038623326685  0.6668705498211511  1.0000
  C   C26       1.0  0.6215567595900803  0.17166869657559844  0.7288110171953781  1.0000
  C   C27       1.0  0.6694442304288394  0.08363306593125519  0.6729329858014954  1.0000
  H   H9        1.0  0.7939426236102366  0.15037773374625263  0.5056796529631506  1.0000
  H   H10       1.0  0.7939402769451757  0.7331543471342457  0.5084474528097838  1.0000
  H   H11       1.0  0.0017581303833777968  0.9440058680457343  0.541369817893699  1.0000
  H   H12       1.0  0.9328811662006129  0.4968591638911827  0.5289661970496382  1.0000
  H   H13       1.0  0.5702372459015339  0.0350343496425869  0.4013736724761671  1.0000
  H   H14       1.0  0.5187532118777816  0.2784044365775771  0.7104648585674864  1.0000
  H   H15       1.0  0.6353482856649825  0.2095158931544847  0.8205427014657807  1.0000
  H   H16       1.0  0.7195031268575729  0.05330037016080856  0.7237621815475574  1.0000
  C   C28       1.0  0.9026934107446353  0.4427851062754633  0.1440452833067909  1.0000
  C   C29       1.0  0.9264408515080674  0.3129022253125011  0.151824595834972  1.0000
  C   C30       1.0  0.9392346774064164  0.24786896737092912  0.038501548868506985  1.0000
  C   C31       1.0  0.9263690576614781  0.31319362735401185  0.9165618322392337  1.0000
  C   C32       1.0  0.9025669360039934  0.44298428814110546  0.9067864764575875  1.0000
  C   C33       1.0  0.8910562308615761  0.5071375436010734  0.021102814104513982  1.0000
  C   C34       1.0  0.963549864308749  0.11028558878508023  0.04663975096324235  1.0000
  O   O2        1.0  0.9403954315142607  0.03647617291987725  0.9635441001386895  1.0000
  C   C35       1.0  0.014137723526951753  0.056438991996620176  0.14894606883604378  1.0000
  C   C36       1.0  0.008058213335351283  0.9243252129056462  0.1945215207062354  1.0000
  C   C37       1.0  0.0560871738126607  0.8722825155398485  0.2898575429879733  1.0000
  F   F2        1.0  0.04940806567688937  0.7450480429028253  0.3338557183335338  1.0000
  C   C38       1.0  0.11097236284655551  0.9512422783288851  0.3397668489853847  1.0000
  C   C39       1.0  0.11813352056769298  0.08217683302030544  0.29407633368633235  1.0000
  C   C40       1.0  0.07025362251623711  0.13463493766788015  0.19880430755391718  1.0000
  H   H17       1.0  0.8567753616622977  0.687249802343507  0.33678371124518147  1.0000
  H   H18       1.0  0.9342135534022598  0.2616984919671226  0.24627739370037102  1.0000
  H   H19       1.0  0.9356702817445828  0.26286803937166603  0.8291121799420926  1.0000
  H   H20       1.0  0.8727483709336445  0.60726725673682  0.01430150487190707  1.0000
  H   H21       1.0  0.8928176928206997  0.4924906834088154  0.5756290723841131  1.0000
  H   H22       1.0  0.9657235256641727  0.8617782432339761  0.1571223692826571  1.0000
  H   H23       1.0  0.14817619668156046  0.9109358332842946  0.4134635453504074  1.0000
  H   H24       1.0  0.16105734657760706  0.1429903047067418  0.3320873400778379  1.0000
  H   H25       1.0  0.07766092752720555  0.23577779076769478  0.16318441688089824  1.0000
  Zn  Zn1       1.0  0.8203100920500062  0.4408868000284381  0.52923749217561  1.0000
  Zn  Zn2       1.0  0.9849430874069081  0.44488183020617483  0.5215939818204225  1.0000
  C   C41       1.0  0.9025881120917544  0.43777270412663016  0.7626129600511258  1.0000
  C   C42       1.0  0.9026668654714894  0.4479976084636277  0.28821855767830407  1.0000
  C   C43       1.0  0.9026764319476313  0.6800865634222721  0.5202022461507005  1.0000
  C   C44       1.0  0.9025784891023909  0.20568218744678998  0.5306293436798271  1.0000
  O   O3        1.0  0.965135319204675  0.45125739893872563  0.333703754173412  1.0000
  O   O4        1.0  0.9650722923447821  0.43754406925144657  0.7113261423670176  1.0000
  O   O5        1.0  0.9651427692967429  0.6332155550247236  0.5155778146796266  1.0000
  O   O6        1.0  0.9650647860926969  0.25558592106744227  0.5294519870924088  1.0000
  O   O7        1.0  0.8401883371830579  0.6301827078052749  0.5213794895051471  1.0000
  O   O8        1.0  0.8401178605631568  0.4345127823912978  0.7171277476929641  1.0000
  O   O9        1.0  0.8401808877224721  0.44822606641387575  0.33950379809687936  1.0000
  O   O10       1.0  0.8401103545893508  0.2525545792787034  0.5352521283857945  1.0000
