data_image0
_chemical_formula_structural       NC8NH4C6ClH5C6OCH6Zn2C4O8
_chemical_formula_sum              "N2 C25 H15 Cl1 O9 Zn2"
_cell_length_a       13.859017981522156
_cell_length_b       9.276545438789551
_cell_length_c       9.273891588657152
_cell_angle_alpha    86.10611493905307
_cell_angle_beta     89.6801234817753
_cell_angle_gamma    89.4096370293992

_space_group_name_H-M_alt    "P 1"
_space_group_IT_number       1

loop_
  _space_group_symop_operation_xyz
  'x, y, z'

loop_
  _atom_site_type_symbol
  _atom_site_label
  _atom_site_symmetry_multiplicity
  _atom_site_fract_x
  _atom_site_fract_y
  _atom_site_fract_z
  _atom_site_occupancy
  N   N1        1.0  0.9037411705982623  0.5637230584428605  0.4109980320918722  1.0000
  C   C1        1.0  0.8316679493851411  0.5561401265876476  0.34968282231589876  1.0000
  C   C2        1.0  0.7420130977689022  0.5467083235416637  0.2734146799817762  1.0000
  C   C3        1.0  0.7425131039252926  0.5283154079719845  0.12468806059301274  1.0000
  C   C4        1.0  0.6554203284131866  0.5191567634160938  0.05062189307022822  1.0000
  C   C5        1.0  0.567647817034575  0.5283171279103327  0.12468781331628964  1.0000
  C   C6        1.0  0.5667828548628019  0.5467092950528052  0.273414496771484  1.0000
  C   C7        1.0  0.6540568582806752  0.5559037074649367  0.3477666589198587  1.0000
  C   C8        1.0  0.4764281272961955  0.5561410280827295  0.34968258243217964  1.0000
  N   N2        1.0  0.40379225312545586  0.5637233710500442  0.41099793867621126  1.0000
  H   H1        1.0  0.8100771291272064  0.5210776681301033  0.06616570454761114  1.0000
  H   H2        1.0  0.6559474676350905  0.5049492864255478  0.935736979232024  1.0000
  H   H3        1.0  0.5006208396240909  0.5210807617659496  0.06616528643093544  1.0000
  H   H4        1.0  0.6535286409791252  0.5701398438927614  0.46288514126990976  1.0000
  C   C9        1.0  0.15668432893748463  0.14028594376059522  0.4107603714334971  1.0000
  C   C10       1.0  0.15754558828783982  0.2227371093707753  0.2777196123997854  1.0000
  C   C11       1.0  0.1496176014136148  0.15648353381518487  0.14757451088542028  1.0000
  C   C12       1.0  0.14063659696901287  0.0069004455127652554  0.14846791796648273  1.0000
  C   C13       1.0  0.14127309553384954  0.9228888340184613  0.27906671190126664  1.0000
  C   C14       1.0  0.1508583881468013  0.9871495674290599  0.4112480623120678  1.0000
  Cl  Cl1       1.0  0.1494835295848549  0.26162030190188523  0.9830180776666124  1.0000
  H   H5        1.0  0.20518783977850408  0.4052895439423143  0.6373764350565145  1.0000
  H   H6        1.0  0.16207743391598117  0.3394319310984082  0.2748658360150704  1.0000
  H   H7        1.0  0.13408105369750842  0.9552704272906607  0.04777989635477885  1.0000
  H   H8        1.0  0.1365657357796941  0.806604452303813  0.27641621538653616  1.0000
  H   H9        1.0  0.11764396855273643  0.6905168212005687  0.6443257536465787  1.0000
  C   C15       1.0  0.15537831690228665  0.5598988471994193  0.9877266789586261  1.0000
  C   C16       1.0  0.23397750548143414  0.6208032814128468  0.05633543725102208  1.0000
  C   C17       1.0  0.3070294982560192  0.6924750104034767  0.9765669510865193  1.0000
  C   C18       1.0  0.3017428056448367  0.7036036211046099  0.8251327477986511  1.0000
  C   C19       1.0  0.2251767658816084  0.6418260923359315  0.75518128845956  1.0000
  C   C20       1.0  0.15216435578005427  0.5675365704427545  0.8342817185085547  1.0000
  O   O1        1.0  0.38300582350793366  0.7516040808491897  0.051807595237361996  1.0000
  C   C21       1.0  0.4619401490461615  0.8274908072380064  0.9847749098449466  1.0000
  H   H10       1.0  0.9264804593972361  0.4713354021381413  0.09869295991205226  1.0000
  H   H11       1.0  0.35694681368678716  0.7586655137900227  0.7602423098219065  1.0000
  H   H12       1.0  0.22434708771514997  0.64925766798749  0.6381043920159111  1.0000
  H   H13       1.0  0.43536826666641115  0.9250683384705134  0.9204355276611653  1.0000
  H   H14       1.0  0.5026644215536346  0.7559273897406689  0.9143210240503166  1.0000
  H   H15       1.0  0.5110949603216002  0.8619570236694749  0.06963829355853798  1.0000
  Zn  Zn1       1.0  0.048045112212854485  0.5637193732170056  0.41100632287310745  1.0000
  Zn  Zn2       1.0  0.2594883503764509  0.5637153977459082  0.4110014346295867  1.0000
  C   C22       1.0  0.1528092447180116  0.5603485381231721  0.67426139957241  1.0000
  C   C23       1.0  0.1547265137714655  0.567088053446781  0.14774650039835047  1.0000
  C   C24       1.0  0.1519764362301106  0.8270224605217074  0.4054119965507914  1.0000
  C   C25       1.0  0.15555926173491777  0.30041239932495634  0.41659597927126163  1.0000
  O   O2        1.0  0.23474941290063467  0.5694930173434296  0.20144875558710407  1.0000
  O   O3        1.0  0.2332668799502269  0.5579394653976917  0.6205550187655462  1.0000
  O   O4        1.0  0.2325932891786187  0.7732820438291121  0.4034572245598644  1.0000
  O   O5        1.0  0.23542293186033303  0.35415044825330777  0.418546441725227  1.0000
  O   O6        1.0  0.07211045857379039  0.7732843227124637  0.40346131577155453  1.0000
  O   O7        1.0  0.07278403771466492  0.5579434760071902  0.6205590341200301  1.0000
  O   O8        1.0  0.0742665776541831  0.5694969620695296  0.20145103792969915  1.0000
  O   O9        1.0  0.07494009627060909  0.35415438364096685  0.41854883212946814  1.0000
