data_image0
_chemical_formula_structural       NC9NC5H8C12SCH12C13NH9Zn2C4O8
_chemical_formula_sum              "N3 C44 H29 S1 Zn2 O8"
_cell_length_a       17.807436237873137
_cell_length_b       10.299776766347529
_cell_length_c       10.298528502251457
_cell_angle_alpha    85.54283687761513
_cell_angle_beta     89.38885601427036
_cell_angle_gamma    88.37162683502939

_space_group_name_H-M_alt    "P 1"
_space_group_IT_number       1

loop_
  _space_group_symop_operation_xyz
  'x, y, z'

loop_
  _atom_site_type_symbol
  _atom_site_label
  _atom_site_symmetry_multiplicity
  _atom_site_fract_x
  _atom_site_fract_y
  _atom_site_fract_z
  _atom_site_occupancy
  N   N1        1.0  0.7071944207623315  0.38823737771860917  0.5569762651980745  1.0000
  C   C1        1.0  0.6466137488214693  0.3530514598717367  0.545950163888141  1.0000
  C   C2        1.0  0.5712580513049141  0.30928405295194006  0.5322348910611308  1.0000
  C   C3        1.0  0.5531829146784621  0.23790454306293804  0.42721707768543027  1.0000
  C   C4        1.0  0.4800164435893798  0.19529829558089462  0.41381779033596433  1.0000
  C   C5        1.0  0.4238764617478513  0.22369404029890652  0.5054038522294176  1.0000
  C   C6        1.0  0.3461193402674752  0.17852946096211308  0.4912459671791651  1.0000
  C   C7        1.0  0.2839270454536684  0.26027666959101897  0.5171899946541563  1.0000
  C   C8        1.0  0.21061830686534738  0.21746737997116639  0.5038043856812284  1.0000
  C   C9        1.0  0.14737541151447026  0.3019058106935859  0.5301124219587912  1.0000
  N   N2        1.0  0.0965411130523151  0.3697884668385887  0.5512633564166776  1.0000
  C   C10       1.0  0.1989183669298985  0.09265291101433837  0.46444939054559775  1.0000
  C   C11       1.0  0.2602532947367948  0.010891852951437447  0.4384969719964375  1.0000
  C   C12       1.0  0.3334426804765006  0.05330667081318242  0.451680008027618  1.0000
  C   C13       1.0  0.4426429046729037  0.2955678413932729  0.6106409341345949  1.0000
  C   C14       1.0  0.515862286948769  0.33798374741375525  0.6238845466562268  1.0000
  H   H1        1.0  0.595584065229529  0.21544352450658  0.3554946762537008  1.0000
  H   H2        1.0  0.46711624232390436  0.141644089482295  0.33088556993179763  1.0000
  H   H3        1.0  0.2924055624221696  0.35773154695429266  0.5460728570720854  1.0000
  H   H4        1.0  0.1424599736491926  0.058620529274135295  0.4538524088601179  1.0000
  H   H5        1.0  0.251076314899694  0.9142574767383851  0.4084135631668844  1.0000
  H   H6        1.0  0.3800962832752154  0.9875682446470986  0.4326277344384315  1.0000
  H   H7        1.0  0.4009586976968205  0.31748937647058684  0.6836579872559565  1.0000
  H   H8        1.0  0.5292906405430248  0.3928588862012026  0.7057750342148781  1.0000
  C   C15       1.0  0.9019421913273162  0.9976442733192857  0.5541171458946195  1.0000
  C   C16       1.0  0.9064528292886327  0.985822725171297  0.6905812158620228  1.0000
  C   C17       1.0  0.9086660739405108  0.8626974571879735  0.7597350668610201  1.0000
  C   C18       1.0  0.9063091753230905  0.7505417505906983  0.690598515839862  1.0000
  C   C19       1.0  0.9018005438452894  0.7603712564051766  0.5541336669595128  1.0000
  C   C20       1.0  0.8996418673974134  0.8843599324470378  0.48665688027949827  1.0000
  C   C21       1.0  0.913429540738639  0.8512558915397953  0.9040987770026356  1.0000
  C   C22       1.0  0.870430785735923  0.7598079491145266  0.9787812585496038  1.0000
  C   C23       1.0  0.8749363284905607  0.7492734847281719  0.11464074177470085  1.0000
  C   C24       1.0  0.9222532633652671  0.8299166630427538  0.17762738143691745  1.0000
  C   C25       1.0  0.9654312623204094  0.9207818621956159  0.10431549923101523  1.0000
  C   C26       1.0  0.9610358811004522  0.931660998942327  0.9684439833595104  1.0000
  S   S1        1.0  0.9281173403966279  0.8159350326442573  0.3519525745339922  1.0000
  C   C27       1.0  0.8526238681896512  0.9355674652107024  0.3725913417008684  1.0000
  H   H9        1.0  0.9002529897009867  0.32960090125197694  0.5021177069444853  1.0000
  H   H10       1.0  0.907219247094887  0.07259962515700491  0.7435346481548744  1.0000
  H   H11       1.0  0.9090344631678395  0.6553810895970201  0.7433270458477232  1.0000
  H   H12       1.0  0.8961626156555678  0.8927112415697499  0.3813806451937596  1.0000
  H   H13       1.0  0.9000450432176128  0.4366647501352371  0.5021398671345928  1.0000
  H   H14       1.0  0.8326134166144629  0.6976517086138191  0.9322163766227309  1.0000
  H   H15       1.0  0.8413461750469983  0.6787840585187757  0.17086178299600008  1.0000
  H   H16       1.0  0.002449013660682509  0.9830313318373339  0.1524812388469141  1.0000
  H   H17       1.0  0.9955741869665501  0.0017360705701197137  0.9136222419899167  1.0000
  H   H18       1.0  0.8676646727869868  0.031200952982758157  0.3234871335744106  1.0000
  H   H19       1.0  0.8439156343144895  0.9466239975297994  0.4780110108215097  1.0000
  H   H20       1.0  0.79976065140768  0.9025540436262145  0.33123986511375947  1.0000
  C   C28       1.0  0.9018820110512056  0.3791337367522501  0.1727083665295679  1.0000
  C   C29       1.0  0.8237754861155226  0.40269648545801756  0.17136470061188747  1.0000
  C   C30       1.0  0.784206056410056  0.41449532136715533  0.05353724687035655  1.0000
  C   C31       1.0  0.8237531089140175  0.4024326892464438  0.9361053203263592  1.0000
  C   C32       1.0  0.9018607008674019  0.37888176949728547  0.9355423938699272  1.0000
  C   C33       1.0  0.940425005061976  0.3673803387856438  0.05431809129791997  1.0000
  C   C34       1.0  0.7016317507277657  0.4394001630260828  0.05312439335229335  1.0000
  C   C35       1.0  0.6684454732232992  0.528902766608619  0.13452904562870227  1.0000
  C   C36       1.0  0.590718372726212  0.5522986482924902  0.13402094586929003  1.0000
  C   C37       1.0  0.5451432884822419  0.4866003726627932  0.05233933066630158  1.0000
  C   C38       1.0  0.5775880378765312  0.39736923760310416  0.9710495705343822  1.0000
  C   C39       1.0  0.6553071365271641  0.37387937147431555  0.9713211756869716  1.0000
  C   C40       1.0  0.46512314789668646  0.510737151867994  0.051936906812959815  1.0000
  N   N3        1.0  0.40079235071928737  0.5301416177551594  0.05161342020017589  1.0000
  H   H21       1.0  0.04941062882287439  0.33380398523269683  0.38263559759031507  1.0000
  H   H22       1.0  0.7934337596805345  0.410141963997666  0.26232564021683147  1.0000
  H   H23       1.0  0.7936933551692403  0.41320416036448143  0.8448425981784643  1.0000
  H   H24       1.0  0.000623212744669032  0.3492247856774786  0.05461880162667887  1.0000
  H   H25       1.0  0.04952783187149268  0.3351882193992346  0.7270896832006226  1.0000
  H   H26       1.0  0.7027037009522574  0.5820471555620007  0.197330434268421  1.0000
  H   H27       1.0  0.5662141010056579  0.6218493332725823  0.19708883286488943  1.0000
  H   H28       1.0  0.5428102886059074  0.3456996114999282  0.9076841035300611  1.0000
  H   H29       1.0  0.6790739888684326  0.3032334529353089  0.9088108675038256  1.0000
  Zn  Zn1       1.0  0.8195514650466187  0.38290995279399664  0.5553351547943497  1.0000
  Zn  Zn2       1.0  0.9841840522388476  0.37510530207450776  0.5529151445503351  1.0000
  C   C41       1.0  0.9018640116163972  0.37375582941214897  0.791350365660483  1.0000
  C   C42       1.0  0.9018733031438764  0.3842609788054559  0.316900034775744  1.0000
  C   C43       1.0  0.9018235757999418  0.6162015205146139  0.5489547585042274  1.0000
  C   C44       1.0  0.9019136830706193  0.14181373004247266  0.559295711971393  1.0000
  O   O1        1.0  0.9643475905925188  0.38301423806761425  0.3643736944481424  1.0000
  O   O2        1.0  0.9643420487003177  0.36907804124330273  0.74203960029371  1.0000
  O   O3        1.0  0.9643085540067589  0.5648560424335609  0.5463034449355069  1.0000
  O   O4        1.0  0.9643810291091227  0.1872362488629289  0.5601097532453794  1.0000
  O   O5        1.0  0.8393544319953209  0.5707790086703358  0.5481405469183045  1.0000
  O   O6        1.0  0.8393879263975701  0.3750025678053556  0.7438766330561133  1.0000
  O   O7        1.0  0.8393934683917709  0.3889387198871199  0.366209165611157  1.0000
  O   O8        1.0  0.8394269069043073  0.1931607213616222  0.561945321788359  1.0000
