data_image0
_chemical_formula_structural       NC6NC2H4C10H5C6ClH4Zn2C4O8
_chemical_formula_sum              "N2 C28 H13 Cl1 Zn2 O8"
_cell_length_a       14.927258858638513
_cell_length_b       9.275150299802178
_cell_length_c       9.276548810779733
_cell_angle_alpha    85.75527424230437
_cell_angle_beta     89.72476428372391
_cell_angle_gamma    89.48389287567745

_space_group_name_H-M_alt    "P 1"
_space_group_IT_number       1

loop_
  _space_group_symop_operation_xyz
  'x, y, z'

loop_
  _atom_site_type_symbol
  _atom_site_label
  _atom_site_symmetry_multiplicity
  _atom_site_fract_x
  _atom_site_fract_y
  _atom_site_fract_z
  _atom_site_occupancy
  N   N1        1.0  0.8395837120021066  0.564465642434878  0.40168654954791094  1.0000
  C   C1        1.0  0.7620572209614617  0.5644656140084277  0.4016865602933861  1.0000
  C   C2        1.0  0.6656247129259456  0.5644657287057124  0.40168650980369985  1.0000
  C   C3        1.0  0.619089089523806  0.5396070008967382  0.2751933352351499  1.0000
  C   C4        1.0  0.5253777784421974  0.539607025326114  0.2751932016931965  1.0000
  C   C5        1.0  0.47780864986891053  0.5644655512419603  0.40168652943102495  1.0000
  C   C6        1.0  0.3813760748418602  0.564465665942157  0.40168647893540077  1.0000
  N   N2        1.0  0.30384958380121546  0.5644656375157067  0.40168648968087584  1.0000
  C   C7        1.0  0.5243442062795157  0.5893242790538469  0.5281797039936369  1.0000
  C   C8        1.0  0.6180555173611241  0.5893242546244708  0.5281798375355904  1.0000
  H   H1        1.0  0.655187348299517  0.5202655079342415  0.17677438549266977  1.0000
  H   H2        1.0  0.49008369170061045  0.520265705520031  0.17677437943975421  1.0000
  H   H3        1.0  0.48824601422120023  0.6086657626808476  0.6265987618299134  1.0000
  H   H4        1.0  0.6533496032232069  0.6086656728100028  0.6265987692154196  1.0000
  C   C9        1.0  0.07407732284724822  0.14078211705927735  0.4040987805144234  1.0000
  C   C10       1.0  0.12151923246199808  0.22183908443919667  0.2950864896277203  1.0000
  C   C11       1.0  0.16129517578245176  0.15464386065194535  0.18053433719107992  1.0000
  C   C12       1.0  0.15403377754113168  0.005412309890652897  0.173518991770889  1.0000
  C   C13       1.0  0.1085496280068366  0.9229055903765914  0.2818836940905065  1.0000
  C   C14       1.0  0.06936455744522241  0.9881381259582287  0.39928680929349514  1.0000
  C   C15       1.0  0.2087555310637238  0.23942021341856723  0.06902959131533426  1.0000
  C   C16       1.0  0.24849182772259962  0.310423033951599  0.9756768783138976  1.0000
  C   C17       1.0  0.29502118794886867  0.39357231568256723  0.8663649227018982  1.0000
  C   C18       1.0  0.3347498232535908  0.46456981741732956  0.7730301047593744  1.0000
  H   H5        1.0  0.12581672845745437  0.33830776803629803  0.29731248085071615  1.0000
  H   H6        1.0  0.18433281276832114  0.9524580361602637  0.08487969394733262  1.0000
  H   H7        1.0  0.10582882270296311  0.8068487441634955  0.27566277297482755  1.0000
  H   H8        1.0  0.010114542818534312  0.8607923826622899  0.7416398538766358  1.0000
  H   H9        1.0  0.3696348789145021  0.5269116529940716  0.6910744256411347  1.0000
  C   C19       1.0  0.07300514654504608  0.5605948155757476  0.9785653891543475  1.0000
  C   C20       1.0  0.14784688400323567  0.6154396678098877  0.04736040094279347  1.0000
  C   C21       1.0  0.2176043688393415  0.6810378818816558  0.9667554028630119  1.0000
  C   C22       1.0  0.2135657103966587  0.6928953940931122  0.8162485405871465  1.0000
  C   C23       1.0  0.1406815580144519  0.6370385008137462  0.7458101695003645  1.0000
  C   C24       1.0  0.07043673908125153  0.5683253966203194  0.8248202261100168  1.0000
  Cl  Cl1       1.0  0.30970271901138147  0.7505086707236936  0.05486534943606424  1.0000
  H   H10       1.0  0.96521001631883  0.3991057252250889  0.27248460602907726  1.0000
  H   H11       1.0  0.2673680453087195  0.7442208545340656  0.7534678128307144  1.0000
  H   H12       1.0  0.1403112380319529  0.644566751422182  0.6287191268544201  1.0000
  H   H13       1.0  0.9268282204782228  0.5154295814053393  0.5485245259125392  1.0000
  Zn  Zn1       1.0  0.9735608181212315  0.5644618510356303  0.4016948800164273  1.0000
  Zn  Zn2       1.0  0.16987251841879258  0.5644577190413602  0.40169004609249304  1.0000
  C   C25       1.0  0.07095220858508006  0.5611164758979037  0.6648925565087773  1.0000
  C   C26       1.0  0.07248326111869452  0.5678049158579055  0.1384925006330211  1.0000
  C   C27       1.0  0.07026820838983916  0.8279173726392763  0.3944545361806268  1.0000
  C   C28       1.0  0.07316720373411112  0.30100228639432247  0.4089306076266235  1.0000
  O   O1        1.0  0.14680741378547302  0.5702168289257035  0.1921637014931441  1.0000
  O   O2        1.0  0.1456241014129711  0.5587003345257373  0.6112172782124163  1.0000
  O   O3        1.0  0.14507075377202638  0.7741454465100179  0.3928366549090392  1.0000
  O   O4        1.0  0.1473606947090219  0.35477172627691944  0.4105442167027249  1.0000
  O   O5        1.0  0.9960725748394681  0.7741478438029832  0.3928407094002573  1.0000
  O   O6        1.0  0.9966259130687023  0.558704464543825  0.6112212460322438  1.0000
  O   O7        1.0  0.9978092310381531  0.5702208928410744  0.19216593723018782  1.0000
  O   O8        1.0  0.998362511687563  0.3547757808597054  0.41054656052762684  1.0000
