data_image0
_chemical_formula_structural       NC8NC6H8C12SCH10C13NH9Zn2C4O8
_chemical_formula_sum              "N3 C44 H27 S1 Zn2 O8"
_cell_length_a       17.457602349358154
_cell_length_b       10.299776766347527
_cell_length_c       10.298528502251457
_cell_angle_alpha    85.54283687761513
_cell_angle_beta     92.8736263554175
_cell_angle_gamma    91.66964631390691

_space_group_name_H-M_alt    "P 1"
_space_group_IT_number       1

loop_
  _space_group_symop_operation_xyz
  'x, y, z'

loop_
  _atom_site_type_symbol
  _atom_site_label
  _atom_site_symmetry_multiplicity
  _atom_site_fract_x
  _atom_site_fract_y
  _atom_site_fract_z
  _atom_site_occupancy
  N   N1        1.0  0.7221885478446188  0.4532574152390536  0.6263398745041098  1.0000
  C   C1        1.0  0.6611196292475751  0.4073368664497097  0.615722672693235  1.0000
  C   C2        1.0  0.5851473101237159  0.3502174148009418  0.6025244168074166  1.0000
  C   C3        1.0  0.5266089276484855  0.3903532057001171  0.6774315534112871  1.0000
  C   C4        1.0  0.4520742719350932  0.33535175966984454  0.6648478192652472  1.0000
  C   C5        1.0  0.3899444415558772  0.37772916372642606  0.7441773174618447  1.0000
  C   C6        1.0  0.3153958642803077  0.3962158008811971  0.6884069307423144  1.0000
  C   C7        1.0  0.25685751077408925  0.43616763459164587  0.763422033836759  1.0000
  C   C8        1.0  0.1808707264125512  0.45526085237957625  0.7054359124966583  1.0000
  N   N2        1.0  0.11979026949905941  0.470605419887756  0.6588152219840786  1.0000
  C   C9        1.0  0.27237551122022063  0.45787579637558506  0.8947161053640539  1.0000
  C   C10       1.0  0.34613929964673135  0.4397780066365143  0.9508741397618319  1.0000
  C   C11       1.0  0.40466600102880873  0.4000060695372114  0.8763168155557712  1.0000
  C   C12       1.0  0.4373668138855481  0.23953759976656094  0.5759238481850308  1.0000
  C   C13       1.0  0.49589341394641107  0.1996803481039635  0.5014167656291657  1.0000
  C   C14       1.0  0.5696432670053511  0.2547939827683625  0.5145505183988319  1.0000
  H   H1        1.0  0.5389368042266345  0.46552339814215066  0.7440708132350828  1.0000
  H   H2        1.0  0.303056611652314  0.38128006972911505  0.5863697025476697  1.0000
  H   H3        1.0  0.2275070036995803  0.48873810715249116  0.9535593688348262  1.0000
  H   H4        1.0  0.3579645564129904  0.4562714856330705  0.052538066282232676  1.0000
  H   H5        1.0  0.4611531447347923  0.384999173692137  0.9224289549784124  1.0000
  H   H6        1.0  0.3808910624865538  0.1942067169722583  0.5652705269992055  1.0000
  H   H7        1.0  0.48407916954160224  0.12562699174587855  0.43357903925113805  1.0000
  H   H8        1.0  0.6145119688394644  0.22306182380383485  0.45621844053071664  1.0000
  C   C15       1.0  0.9210654132314995  0.08056958126806357  0.6425821619342225  1.0000
  C   C16       1.0  0.9256716869569405  0.06916274488939209  0.7794886479050389  1.0000
  C   C17       1.0  0.9279318574195999  0.9462409644422854  0.8488595801377454  1.0000
  C   C18       1.0  0.9255249872012279  0.8338685626448821  0.779491857899631  1.0000
  C   C19       1.0  0.9209207625013077  0.8432835411677896  0.6425847898173913  1.0000
  C   C20       1.0  0.9187163172124472  0.9670737467190551  0.5748962741059351  1.0000
  C   C21       1.0  0.9327963205271255  0.9352373558549218  0.993690504443143  1.0000
  C   C22       1.0  0.888885894309306  0.8398360724790911  0.06415554768023435  1.0000
  C   C23       1.0  0.8934869647981206  0.8297158514045551  0.20045694715660436  1.0000
  C   C24       1.0  0.9418071261036727  0.914709387683768  0.2680845643037254  1.0000
  C   C25       1.0  0.9859005966526017  0.009544407623811367  0.199007701156532  1.0000
  C   C26       1.0  0.9814120233730748  0.02001942940093548  0.06270507398558589  1.0000
  S   S1        1.0  0.9477955348798087  0.901266905357439  0.4429849224985472  1.0000
  C   C27       1.0  0.8707014296885756  0.013958405909523906  0.45621907848979226  1.0000
  H   H9        1.0  0.926454354560489  0.15601010995946152  0.8325172526027025  1.0000
  H   H10       1.0  0.9283080573348077  0.7389584668603136  0.8324876917715495  1.0000
  H   H11       1.0  0.9151632974356215  0.9751051705709617  0.4692787842656152  1.0000
  H   H12       1.0  0.8502667111153968  0.7742028719133545  0.013881432281333204  1.0000
  H   H13       1.0  0.8591846238504434  0.7561381188212715  0.25338337205799855  1.0000
  H   H14       1.0  0.023703208353195844  0.07519731981315636  0.2508042454931281  1.0000
  H   H15       1.0  0.016682619726991817  0.09326998131728237  0.011270946380826707  1.0000
  H   H16       1.0  0.8860611334866556  0.11097475764450793  0.40859011460043293  1.0000
  H   H17       1.0  0.8618085614871899  0.024214296033665088  0.5607846196443063  1.0000
  H   H18       1.0  0.8167173927090225  0.9760846966336965  0.40968262955579704  1.0000
  C   C28       1.0  0.9210039569969233  0.4620535116768747  0.2611674799191539  1.0000
  C   C29       1.0  0.8412413964273917  0.47843508214818264  0.25216290729628343  1.0000
  C   C30       1.0  0.8008330049878412  0.4865958720991263  0.13045437307395047  1.0000
  C   C31       1.0  0.8412185447784175  0.47816922855827193  0.016901332192163387  1.0000
  C   C32       1.0  0.9209821949888481  0.461799585146059  0.023999417097005264  1.0000
  C   C33       1.0  0.960364149974997  0.45384378832527594  0.1465576094808101  1.0000
  C   C34       1.0  0.716507936577817  0.5039087640818958  0.12194240040292614  1.0000
  C   C35       1.0  0.6826180346559607  0.5903601939770349  0.20009204964260285  1.0000
  C   C36       1.0  0.6032429431844332  0.606609782021841  0.19196025818952722  1.0000
  C   C37       1.0  0.5567015636970654  0.536721295609166  0.10580851108959789  1.0000
  C   C38       1.0  0.5898342154295073  0.4504731575316707  0.0277010228406942  1.0000
  C   C39       1.0  0.6692011353972714  0.43412884934559276  0.03559553484343825  1.0000
  C   C40       1.0  0.47498481448189306  0.5535009571809224  0.09755748774899287  1.0000
  N   N3        1.0  0.40929005837062254  0.5669907965900032  0.09092425638886126  1.0000
  H   H19       1.0  0.0716605163617372  0.43028766278612524  0.48556473096894753  1.0000
  H   H20       1.0  0.8102563565149418  0.4830909173686555  0.34014784539963405  1.0000
  H   H21       1.0  0.8105214560173016  0.4861769811585168  0.9226902652138032  1.0000
  H   H22       1.0  0.021838696313115198  0.441222908013275  0.15276272860584394  1.0000
  H   H23       1.0  0.07178020438104227  0.43168267269748606  0.8300303121824943  1.0000
  H   H24       1.0  0.7176026145804416  0.646654312604358  0.2662535811990987  1.0000
  H   H25       1.0  0.5782191252776396  0.6739075240771797  0.2526246975898796  1.0000
  H   H26       1.0  0.5543190989273413  0.39560603651611204  0.9609244567918555  1.0000
  H   H27       1.0  0.6934718989599646  0.365668074786238  0.9754163460976554  1.0000
  Zn  Zn1       1.0  0.836927816523115  0.4582601895080023  0.6357190576628189  1.0000
  Zn  Zn2       1.0  0.005050988286960269  0.4655919944534037  0.6494466726287627  1.0000
  C   C41       1.0  0.9209855759332377  0.4566739494539122  0.8798077136150946  1.0000
  C   C42       1.0  0.9209950644621916  0.4671799531179088  0.40535829406939133  1.0000
  C   C43       1.0  0.920944282785682  0.6991159228541077  0.6374081404007195  1.0000
  C   C44       1.0  0.9210363005350455  0.22473641691864873  0.6477579318413409  1.0000
  O   O1        1.0  0.9847939486240976  0.4716771498245884  0.45895960681573444  1.0000
  O   O2        1.0  0.9847882892312017  0.4577404434741441  0.8366249690969949  1.0000
  O   O3        1.0  0.9847540843741049  0.6535153651346891  0.6408855284854447  1.0000
  O   O4        1.0  0.9848280961131607  0.27590223498466176  0.6546989453563257  1.0000
  O   O5        1.0  0.857150651324727  0.6479499464761751  0.6304667802438628  1.0000
  O   O6        1.0  0.8571848558843376  0.45217658511412573  0.826206151606446  1.0000
  O   O7        1.0  0.8571905153813965  0.4661132467314011  0.44853922773580135  1.0000
  O   O8        1.0  0.8572246628663053  0.2703383225702873  0.6442786636559588  1.0000
