data_image0
_chemical_formula_structural       NC12NC2H8C7OC3NC3H11C7OC3FC3H9Zn2C4O8
_chemical_formula_sum              "N3 C44 H28 O10 F1 Zn2"
_cell_length_a       17.80743265337812
_cell_length_b       10.298746005989749
_cell_length_c       10.29938172300155
_cell_angle_alpha    85.57926667056456
_cell_angle_beta     91.51787109396743
_cell_angle_gamma    89.44452832379845

_space_group_name_H-M_alt    "P 1"
_space_group_IT_number       1

loop_
  _space_group_symop_operation_xyz
  'x, y, z'

loop_
  _atom_site_type_symbol
  _atom_site_label
  _atom_site_symmetry_multiplicity
  _atom_site_fract_x
  _atom_site_fract_y
  _atom_site_fract_z
  _atom_site_occupancy
  N   N1        1.0  0.7077759372075276  0.4063896490767432  0.6014925407991099  1.0000
  C   C1        1.0  0.6569697922267919  0.435930618882207  0.532798239250168  1.0000
  C   C2        1.0  0.5937619315141404  0.4726774420953342  0.4473511757042033  1.0000
  C   C3        1.0  0.60551376020968  0.5266652238000593  0.32073955980571434  1.0000
  C   C4        1.0  0.5442127323519843  0.5619090383428458  0.23768828225887928  1.0000
  C   C5        1.0  0.4710057020876288  0.5434283626405099  0.28058875928301075  1.0000
  C   C6        1.0  0.4582770147439108  0.4893219065966783  0.40766849477716155  1.0000
  C   C7        1.0  0.5204353616184739  0.45408134133745454  0.49070326136163556  1.0000
  C   C8        1.0  0.3805012200526757  0.46972785651308874  0.45342909076293125  1.0000
  C   C9        1.0  0.3616979620883588  0.49695432691005537  0.5804725235664807  1.0000
  C   C10       1.0  0.28846098332494025  0.47851524014806435  0.6234135661463429  1.0000
  C   C11       1.0  0.23308413920417803  0.4325956388474386  0.5401490995693132  1.0000
  C   C12       1.0  0.1577102864673419  0.41360409614727156  0.5844909832127521  1.0000
  N   N2        1.0  0.0971150465148804  0.3983361730675161  0.6201388072340783  1.0000
  C   C13       1.0  0.25119580411301257  0.4052004031715126  0.41364860689108474  1.0000
  C   C14       1.0  0.3243799688894475  0.4236542004395694  0.37045168535776907  1.0000
  H   H1        1.0  0.6619861330708825  0.5414799984997598  0.28630479574655254  1.0000
  H   H2        1.0  0.5534298230923521  0.6039805695540437  0.13991554796700556  1.0000
  H   H3        1.0  0.4243792332576268  0.5730468739393086  0.21500232857082513  1.0000
  H   H4        1.0  0.5119165507356627  0.41062434568120376  0.5883514304309048  1.0000
  H   H5        1.0  0.4033674902064175  0.5341563329872119  0.6460472052135253  1.0000
  H   H6        1.0  0.275004349738779  0.5003918850319158  0.7214218098066326  1.0000
  H   H7        1.0  0.20880944501059936  0.3692659109028921  0.34848698130592193  1.0000
  H   H8        1.0  0.3373080252945873  0.40024196707049375  0.2727466329694337  1.0000
  C   C15       1.0  0.9024131908990962  0.020961504244762393  0.6107969377432525  1.0000
  C   C16       1.0  0.9375768728702355  0.028709712347266166  0.4899781236365605  1.0000
  C   C17       1.0  0.9545674613079321  0.9155203763225171  0.42815946628107504  1.0000
  C   C18       1.0  0.9375774442834621  0.79347308778708  0.489929014462154  1.0000
  C   C19       1.0  0.9024849700410176  0.7837542231814788  0.6108459294806672  1.0000
  C   C20       1.0  0.8849447082235752  0.8980630610063658  0.6703495059361262  1.0000
  C   C21       1.0  0.9923384352408373  0.9234978408062804  0.3011543296139181  1.0000
  O   O1        1.0  0.03821209988455143  0.8345646711306788  0.27813934237548277  1.0000
  C   C22       1.0  0.9780702221756996  0.032305574005641276  0.20026643862777524  1.0000
  C   C23       1.0  0.9069361663587175  0.09316603919982348  0.18475237657706867  1.0000
  C   C24       1.0  0.8937877208994122  0.1950850564761637  0.08821696303382587  1.0000
  N   N3        1.0  0.821450918946408  0.25681282102986613  0.07354866497216306  1.0000
  C   C25       1.0  0.9518200204362209  0.2357498771272435  0.0058630549700911  1.0000
  C   C26       1.0  0.022268639885834933  0.17473836152009461  0.01948824001137472  1.0000
  C   C27       1.0  0.035358700602124316  0.07324494990159924  0.11571665298247558  1.0000
  H   H9        1.0  0.8370128122309446  0.2135950505334039  0.8399976923487518  1.0000
  H   H10       1.0  0.9525242141602243  0.12290575850974128  0.4444727202274696  1.0000
  H   H11       1.0  0.9511343567292718  0.7059891484820342  0.44288095562179675  1.0000
  H   H12       1.0  0.857843561090093  0.891338438677308  0.7634810037712721  1.0000
  H   H13       1.0  0.8364603604264604  0.5580665827340918  0.8395282683756424  1.0000
  H   H14       1.0  0.8614306525928527  0.060719229283578986  0.24653489875640933  1.0000
  H   H15       1.0  0.7777908772593055  0.22727763009372381  0.1344081206783656  1.0000
  H   H16       1.0  0.8110407511990141  0.3326256853669623  0.0018125440321763392  1.0000
  H   H17       1.0  0.9423647902188276  0.31427836806364823  0.930923962860204  1.0000
  H   H18       1.0  0.06685406904660263  0.20616801272143004  0.9553293706615862  1.0000
  H   H19       1.0  0.09045565608837913  0.027464974958377734  0.12488283297547187  1.0000
  C   C28       1.0  0.9025123202358961  0.4022553965618709  0.22945679622394954  1.0000
  C   C29       1.0  0.9262740509099351  0.2712983537042186  0.23944824140826215  1.0000
  C   C30       1.0  0.9390750145554382  0.2056866294668487  0.12731799569299485  1.0000
  C   C31       1.0  0.9262022253576451  0.2715929983914953  0.004178769033573722  1.0000
  C   C32       1.0  0.9023858253067008  0.40246027594325656  0.9921861057701679  1.0000
  C   C33       1.0  0.8908680577314552  0.46713424877233495  0.10543044120478506  1.0000
  C   C34       1.0  0.963405354689137  0.06700319104337127  0.13772026418738847  1.0000
  O   O2        1.0  0.9402597448237785  0.994231638138614  0.05242614147406365  1.0000
  C   C35       1.0  0.013998357449620302  0.010878900417047971  0.24478518897756452  1.0000
  C   C36       1.0  0.007933961997820704  0.8790322971841295  0.28976001766609705  1.0000
  C   C37       1.0  0.05596791026492686  0.8248270756735716  0.38961375022020595  1.0000
  F   F1        1.0  0.049303374434781944  0.6978869759845194  0.43295578022669473  1.0000
  C   C38       1.0  0.11084308362744053  0.9013221536400079  0.4447143935769762  1.0000
  C   C39       1.0  0.11798923975310217  0.03194083049882646  0.3997262421287339  1.0000
  C   C40       1.0  0.07010430389622146  0.08655477496504016  0.2999506465381512  1.0000
  H   H20       1.0  0.8565673981720759  0.6487967763370104  0.4179164596963698  1.0000
  H   H21       1.0  0.9340524167705906  0.21974262883518428  0.3346232825910218  1.0000
  H   H22       1.0  0.9355089844249351  0.22084671633665545  0.9175956619472152  1.0000
  H   H23       1.0  0.8725491813891936  0.5680920765327615  0.09692370921774218  1.0000
  H   H24       1.0  0.8926311487234904  0.4524074758587638  0.6601197441924733  1.0000
  H   H25       1.0  0.9656071862308421  0.8183863394565145  0.2483562822610794  1.0000
  H   H26       1.0  0.14805078033124097  0.8593405906366915  0.5219105661990782  1.0000
  H   H27       1.0  0.1609053393649713  0.0908267122712998  0.4417970209937052  1.0000
  H   H28       1.0  0.07749998470295806  0.187369271651543  0.2650501484681227  1.0000
  Zn  Zn1       1.0  0.8201307957369026  0.40406212430164157  0.6068809371364939  1.0000
  Zn  Zn2       1.0  0.984760182738079  0.4006531063286056  0.6147610031484831  1.0000
  C   C41       1.0  0.9024075926346509  0.3972474931908994  0.8480135049472789  1.0000
  C   C42       1.0  0.9024851837212134  0.4074693390061295  0.37362864895808157  1.0000
  C   C43       1.0  0.9024684020750932  0.6395688349539619  0.6056613819430943  1.0000
  C   C44       1.0  0.9024243179459281  0.16514643798968304  0.6159808384109533  1.0000
  O   O3        1.0  0.964952070319403  0.4079198149427048  0.4250044833820032  1.0000
  O   O4        1.0  0.964890601475413  0.3942086715858569  0.8026180843893428  1.0000
  O   O5        1.0  0.9649388634374172  0.589886237433707  0.6069169901555482  1.0000
  O   O6        1.0  0.9649037521975605  0.21224225952297385  0.6207054775538843  1.0000
  O   O7        1.0  0.8399871700974921  0.5924729722720159  0.6009364600351819  1.0000
  O   O8        1.0  0.8399389082904019  0.3967969668422928  0.7966374851243785  1.0000
  O   O9        1.0  0.8400003774389923  0.4105080645188142  0.41902232273331935  1.0000
  O   O10       1.0  0.8399520592970592  0.21483049983570712  0.6147234142712033  1.0000
