data_image0
_chemical_formula_structural       NC9NC5H8C7OC3OC4H12C6SCOC6H10Zn2C4O8
_chemical_formula_sum              "N2 C45 H30 O11 S1 Zn2"
_cell_length_a       17.807436237873137
_cell_length_b       10.299371110280156
_cell_length_c       10.302041481415108
_cell_angle_alpha    85.5593769261431
_cell_angle_beta     89.38796050765288
_cell_angle_gamma    88.40331171880233

_space_group_name_H-M_alt    "P 1"
_space_group_IT_number       1

loop_
  _space_group_symop_operation_xyz
  'x, y, z'

loop_
  _atom_site_type_symbol
  _atom_site_label
  _atom_site_symmetry_multiplicity
  _atom_site_fract_x
  _atom_site_fract_y
  _atom_site_fract_z
  _atom_site_occupancy
  N   N1        1.0  0.7076495186021218  0.3882490409576136  0.5578728394286276  1.0000
  C   C1        1.0  0.6470577370098461  0.35306315624472906  0.5468402122153639  1.0000
  C   C2        1.0  0.5716882203105461  0.3092957905400824  0.5331168218890865  1.0000
  C   C3        1.0  0.5535912844035291  0.23791691867839315  0.4281138954711652  1.0000
  C   C4        1.0  0.4804113611854937  0.19531071164875627  0.4147067222764049  1.0000
  C   C5        1.0  0.4242796065309526  0.22370585855453842  0.5062699121385046  1.0000
  C   C6        1.0  0.3465082247653726  0.17854132178163362  0.4921036520847779  1.0000
  C   C7        1.0  0.2843417380086884  0.2602884511710795  0.518062729815395  1.0000
  C   C8        1.0  0.21101948249215316  0.21747920166093704  0.5046691710322808  1.0000
  C   C9        1.0  0.1478032492098086  0.30191755392005626  0.5309929198201049  1.0000
  N   N2        1.0  0.09699038519628225  0.3698001469784421  0.5521564856770016  1.0000
  C   C10       1.0  0.1992801356238051  0.0926648519130353  0.465291109105165  1.0000
  C   C11       1.0  0.2605892510369213  0.010903873130615253  0.43932363911032746  1.0000
  C   C12       1.0  0.3337920298589892  0.05331865179943353  0.4525145786588587  1.0000
  C   C13       1.0  0.4430680042298167  0.2955790207115356  0.6114921768552672  1.0000
  C   C14       1.0  0.5163007793936277  0.3379948871220586  0.6247436725979905  1.0000
  H   H1        1.0  0.5959859208045417  0.21545636800392942  0.356409340065845  1.0000
  H   H2        1.0  0.46749480960472567  0.14165701271615205  0.3317870508211736  1.0000
  H   H3        1.0  0.2928510403108127  0.35774324820153586  0.546964230736011  1.0000
  H   H4        1.0  0.1428109963066831  0.05863250175341039  0.45468779244405894  1.0000
  H   H5        1.0  0.2513817579515131  0.9142695865448978  0.40922223999745505  1.0000
  H   H6        1.0  0.3804248624884425  0.9875802768472545  0.4334495858443852  1.0000
  H   H7        1.0  0.40139012799341006  0.31750007830606797  0.6844907857943223  1.0000
  H   H8        1.0  0.529745881523611  0.3928695274307483  0.706622322352078  1.0000
  C   C15       1.0  0.9022728950789805  0.9976554787869244  0.5549005978609571  1.0000
  C   C16       1.0  0.8936221064404035  0.007401601349912733  0.4190736757380083  1.0000
  C   C17       1.0  0.8884102791347126  0.8951705078825324  0.3507469445295248  1.0000
  C   C18       1.0  0.8936593844659094  0.7721318425119926  0.4193841430833789  1.0000
  C   C19       1.0  0.9023741897512181  0.7603834135182617  0.5551399076935585  1.0000
  C   C20       1.0  0.906433824804242  0.8737543423001551  0.6221531574592365  1.0000
  C   C21       1.0  0.8800591227863944  0.9052966333271566  0.20715548711619514  1.0000
  O   O1        1.0  0.9108572621661993  0.8188215171949715  0.14269504242861375  1.0000
  C   C22       1.0  0.8367606704836221  0.013442997849145264  0.13669666051235763  1.0000
  C   C23       1.0  0.8577643468154524  0.05765349027473454  0.009274874942949648  1.0000
  C   C24       1.0  0.8171320178252328  0.15861707530923505  0.9405065464199233  1.0000
  O   O2        1.0  0.8411221769132045  0.1993330351153899  0.8140853843067123  1.0000
  C   C25       1.0  0.8053149874962862  0.3005441386612131  0.7331947868671272  1.0000
  C   C26       1.0  0.7541098295756632  0.21544114047352836  0.9999065210217162  1.0000
  C   C27       1.0  0.7323349225734856  0.17097790003479707  0.12582291864712536  1.0000
  C   C28       1.0  0.7731005991067229  0.070289567576437  0.193837284186807  1.0000
  H   H9        1.0  0.9197442686967425  0.18654873522320756  0.810978269110515  1.0000
  H   H10       1.0  0.8917639102172635  0.10244317212426045  0.3660833980194784  1.0000
  H   H11       1.0  0.8902072737641868  0.6854540470959892  0.3667244651240875  1.0000
  H   H12       1.0  0.9131034325165277  0.8654369717849281  0.7268657549673256  1.0000
  H   H13       1.0  0.9063469206939277  0.4283933323977153  0.6071565048789822  1.0000
  H   H14       1.0  0.9063396740358628  0.014472053061389096  0.9631992501814479  1.0000
  H   H15       1.0  0.8359645457389139  0.31221676841003587  0.6388954232484467  1.0000
  H   H16       1.0  0.806420011718712  0.39393154821860743  0.7801868433376682  1.0000
  H   H17       1.0  0.7464408145848597  0.27510766884428683  0.7142994907619973  1.0000
  H   H18       1.0  0.7214797803699631  0.29350485987606945  0.9495087935348718  1.0000
  H   H19       1.0  0.6834757095384549  0.21433463362052474  0.17068125931572764  1.0000
  H   H20       1.0  0.7543561380668365  0.03599482445190128  0.29046907329824023  1.0000
  C   C29       1.0  0.9023376411022785  0.37914804275820413  0.1737330474960137  1.0000
  C   C30       1.0  0.9367950493129659  0.500614296416019  0.16235302985321165  1.0000
  C   C31       1.0  0.9542740865232942  0.5605124556578673  0.03973026115319467  1.0000
  C   C32       1.0  0.9368662958878584  0.5002070559016194  0.9272464443863965  1.0000
  C   C33       1.0  0.902309458742423  0.3788908180803907  0.936307470556491  1.0000
  C   C34       1.0  0.8852794387598114  0.3189328265819018  0.06011706113809079  1.0000
  S   S1        1.0  0.9989631896811394  0.7149285298619417  0.026601016094220508  1.0000
  C   C35       1.0  0.09149792329907469  0.6407427397696173  0.02778879648011246  1.0000
  O   O3        1.0  0.12089560280511336  0.6161768659606395  0.9202895984134606  1.0000
  C   C36       1.0  0.1329023550618107  0.6074379590845687  0.15069551010075855  1.0000
  C   C37       1.0  0.19953734478372187  0.5305567399168873  0.14988617331303566  1.0000
  C   C38       1.0  0.23868913694501193  0.49780463857762647  0.26525366657690297  1.0000
  C   C39       1.0  0.2120033302647759  0.5414168724643726  0.3825964082280573  1.0000
  C   C40       1.0  0.1461757589302337  0.6181010206270567  0.38477410714401183  1.0000
  C   C41       1.0  0.10679977938386796  0.6512378815512201  0.2697094294959832  1.0000
  H   H21       1.0  0.8372788838401234  0.15032384341681793  0.4024924421466287  1.0000
  H   H22       1.0  0.9502972667943321  0.5489025116904871  0.24848456967225796  1.0000
  H   H23       1.0  0.9506868958790035  0.5481486527604336  0.8330875049022284  1.0000
  H   H24       1.0  0.8587169770435802  0.22529070064888335  0.06796966320278175  1.0000
  H   H25       1.0  0.8893760637794077  0.33258680004491503  0.6124232831373507  1.0000
  H   H26       1.0  0.2212335252945983  0.4950705996270448  0.06023809959074145  1.0000
  H   H27       1.0  0.2897488322458972  0.43840042495362086  0.2636390015442349  1.0000
  H   H28       1.0  0.24237915773658456  0.5159262243099743  0.4718049061424992  1.0000
  H   H29       1.0  0.12564594366589588  0.6521448482003716  0.47575865646147575  1.0000
  H   H30       1.0  0.0563103248006207  0.7115571359048152  0.27454327814698143  1.0000
  Zn  Zn1       1.0  0.8200048805447235  0.38292162085410286  0.5562307313117383  1.0000
  Zn  Zn2       1.0  0.9846350032558895  0.3751169773065684  0.5538092647968742  1.0000
  C   C42       1.0  0.9023124031887757  0.3737658562723926  0.7921629524502855  1.0000
  C   C43       1.0  0.9023292785805462  0.3842742952385796  0.3178771451692126  1.0000
  C   C44       1.0  0.9023513610383693  0.6162135178494565  0.5499206525071758  1.0000
  C   C45       1.0  0.9022902643444373  0.1418250759986095  0.560119514672877  1.0000
  O   O4        1.0  0.9648027448812668  0.3830272251058492  0.3653342854205972  1.0000
  O   O5        1.0  0.9647893906278138  0.3690884029431669  0.7428676010697421  1.0000
  O   O6        1.0  0.9648200073240625  0.5648679953072198  0.5472552427727173  1.0000
  O   O7        1.0  0.9647720720127432  0.1872476447280518  0.5609465471930164  1.0000
  O   O8        1.0  0.839867755607689  0.5707909560973774  0.5490934497350943  1.0000
  O   O9        1.0  0.8398371391177751  0.3750129240609893  0.7447057392910634  1.0000
  O   O10       1.0  0.8398504934729227  0.3889517014918542  0.3671708625608705  1.0000
  O   O11       1.0  0.839819820596493  0.19317211179255955  0.5627832216773947  1.0000
