data_image0
_chemical_formula_structural       NC8NC6H8C6BrH3C9H8Zn2C4O8
_chemical_formula_sum              "N2 C33 H19 Br1 Zn2 O8"
_cell_length_a       17.457602349358154
_cell_length_b       10.302969083221269
_cell_length_c       9.275155815604965
_cell_angle_alpha    86.05280197498422
_cell_angle_beta     93.22066324705655
_cell_angle_gamma    91.68807063265206

_space_group_name_H-M_alt    "P 1"
_space_group_IT_number       1

loop_
  _space_group_symop_operation_xyz
  'x, y, z'

loop_
  _atom_site_type_symbol
  _atom_site_label
  _atom_site_symmetry_multiplicity
  _atom_site_fract_x
  _atom_site_fract_y
  _atom_site_fract_z
  _atom_site_occupancy
  N   N1        1.0  0.7173607676323654  0.4403208960604674  0.4752786572190455  1.0000
  C   C1        1.0  0.656243693156456  0.3943175157218768  0.46349410603914926  1.0000
  C   C2        1.0  0.5802115046575663  0.33709510675404064  0.4488447169373948  1.0000
  C   C3        1.0  0.5219590319319062  0.3779005024435678  0.5319889156298172  1.0000
  C   C4        1.0  0.4473671916898783  0.32280105543020454  0.5180216163455456  1.0000
  C   C5        1.0  0.3855401263121779  0.3658876347516236  0.606074476148136  1.0000
  C   C6        1.0  0.31078785656603525  0.3838612134036199  0.544171185573544  1.0000
  C   C7        1.0  0.2525357790337654  0.4244836896180759  0.6274352240887671  1.0000
  C   C8        1.0  0.1763371853246088  0.4430435036886365  0.5630725416342057  1.0000
  N   N2        1.0  0.11508643304665393  0.4579592178976206  0.5113251126202369  1.0000
  C   C9        1.0  0.268545683504775  0.4473801075543913  0.7731670605081695  1.0000
  C   C10       1.0  0.34251467835813837  0.4297987871753026  0.8355006252079178  1.0000
  C   C11       1.0  0.40075683863954814  0.3893603193455215  0.7527447048731222  1.0000
  C   C12       1.0  0.43231118667548823  0.22620645178057242  0.419319428741987  1.0000
  C   C13       1.0  0.4905534161111255  0.18568315219545717  0.33661927525024526  1.0000
  C   C14       1.0  0.5643625184192889  0.24089975932066723  0.35119707592482796  1.0000
  H   H1        1.0  0.5345487469492258  0.4536545453707892  0.6059559177472413  1.0000
  H   H2        1.0  0.2980666801493037  0.3680014296240177  0.4309134164623929  1.0000
  H   H3        1.0  0.2239016458463749  0.47876862606334947  0.8384809465566749  1.0000
  H   H4        1.0  0.35472076750426806  0.44721245414955174  0.9483440361759932  1.0000
  H   H5        1.0  0.45741245238418876  0.3747775476335841  0.803927658284183  1.0000
  H   H6        1.0  0.37578725705974847  0.1807922317420998  0.407494783993964  1.0000
  H   H7        1.0  0.4784730925537703  0.11103470407896965  0.2613220119636521  1.0000
  H   H8        1.0  0.6090084845564097  0.20864630551615204  0.2864505917733353  1.0000
  C   C15       1.0  0.9162272816676151  0.06789274219930475  0.4933084930979011  1.0000
  C   C16       1.0  0.9958733898297295  0.06869941354919762  0.5248162437610093  1.0000
  C   C17       1.0  0.03538214574652553  0.9521617138285856  0.5404455970035351  1.0000
  C   C18       1.0  0.9958734491781186  0.8336170544626983  0.5248159756664021  1.0000
  C   C19       1.0  0.9162272931494762  0.8303777593252261  0.49330839858852316  1.0000
  C   C20       1.0  0.8767888484251779  0.9481335513480691  0.477706737911898  1.0000
  Br  Br1       1.0  0.14371456427833174  0.9549132840631419  0.5833019521184806  1.0000
  H   H9        1.0  0.02757899998405631  0.15950402877440517  0.5373590421964047  1.0000
  H   H10       1.0  0.027579088132372535  0.7444230935129377  0.5373584009668506  1.0000
  H   H11       1.0  0.8153627073789037  0.9465733221981  0.4534069415577797  1.0000
  C   C21       1.0  0.9148211499403793  0.4457912927246963  0.06994977626054122  1.0000
  C   C22       1.0  0.8547845454335269  0.5063888161404224  0.13232343462320517  1.0000
  C   C23       1.0  0.7998883165981403  0.5758426474459528  0.04606333144940833  1.0000
  C   C24       1.0  0.8040106415837606  0.586159160593974  0.8958551451063461  1.0000
  C   C25       1.0  0.8625028803071766  0.5247956110723087  0.8316331539170796  1.0000
  C   C26       1.0  0.9176334102597661  0.45247918525517683  0.9166670802804284  1.0000
  C   C27       1.0  0.7475631078697985  0.6585773219266622  0.8071418261640959  1.0000
  C   C28       1.0  0.7002984672773515  0.7192177514896809  0.7328301098241434  1.0000
  C   C29       1.0  0.6429513249607935  0.7927946821443336  0.6426539761454055  1.0000
  H   H12       1.0  0.0929526589702556  0.3489445335615595  0.19905195505861384  1.0000
  H   H13       1.0  0.8513366507024693  0.5026370785747183  0.24880248542627711  1.0000
  H   H14       1.0  0.754600035274281  0.6226310543684097  0.09677181289028458  1.0000
  H   H15       1.0  0.863920858553301  0.5309633711517534  0.7146153707448879  1.0000
  H   H16       1.0  0.036489717787631354  0.38256636196743254  0.6538568223021333  1.0000
  H   H17       1.0  0.6585464291729055  0.7972164655296754  0.5280683948395479  1.0000
  H   H18       1.0  0.5857934631981496  0.7440285901543953  0.6524999621690761  1.0000
  H   H19       1.0  0.6410090860337498  0.8929561574799513  0.6789826634291876  1.0000
  Zn  Zn1       1.0  0.8321358310033733  0.4454075188891784  0.48568920967232465  1.0000
  Zn  Zn2       1.0  0.00031139462853513675  0.45286204386817347  0.5009263633659289  1.0000
  C   C30       1.0  0.9171001323015436  0.44604295543272965  0.7566192611364402  1.0000
  C   C31       1.0  0.9153489302722966  0.45222832794340206  0.2299966197917327  1.0000
  C   C32       1.0  0.9162042604046124  0.686206321295511  0.48756309441154744  1.0000
  C   C33       1.0  0.9162447450379256  0.21206340033815851  0.4990528581794149  1.0000
  O   O1        1.0  0.9793478081143597  0.4572119452080483  0.2894922229450272  1.0000
  O   O2        1.0  0.980742614554905  0.4467161674525606  0.7086878900654574  1.0000
  O   O3        1.0  0.9800183312995326  0.6406510963719925  0.4914230538670168  1.0000
  O   O4        1.0  0.9800720336237763  0.26327702217834426  0.5067569458481733  1.0000
  O   O5        1.0  0.8523751346180408  0.6349925380364974  0.47985862198280477  1.0000
  O   O6        1.0  0.8530994176146246  0.4410591683170173  0.6971233813111799  1.0000
  O   O7        1.0  0.8517046054681097  0.45155488714234115  0.2779259808802099  1.0000
  O   O8        1.0  0.8524288313333908  0.2576199556803995  0.4951908118713748  1.0000
