data_image0
_chemical_formula_structural       NC8NC6H8C6OCH8C6OCH8Zn2C4O8
_chemical_formula_sum              "N2 C32 H24 O10 Zn2"
_cell_length_a       17.457602349358154
_cell_length_b       10.300308824427217
_cell_length_c       10.300312196595936
_cell_angle_alpha    85.56418762158174
_cell_angle_beta     92.88147454960499
_cell_angle_gamma    91.68596496717343

_space_group_name_H-M_alt    "P 1"
_space_group_IT_number       1

loop_
  _space_group_symop_operation_xyz
  'x, y, z'

loop_
  _atom_site_type_symbol
  _atom_site_label
  _atom_site_symmetry_multiplicity
  _atom_site_fract_x
  _atom_site_fract_y
  _atom_site_fract_z
  _atom_site_occupancy
  N   N1        1.0  0.7223193768391402  0.45277474670448753  0.6267350920463661  1.0000
  C   C1        1.0  0.6612417103267172  0.40685334789096017  0.6161156121584848  1.0000
  C   C2        1.0  0.5852585105863692  0.3497328413686259  0.6029145210741129  1.0000
  C   C3        1.0  0.5267333790951035  0.38988893560880084  0.6778112453472467  1.0000
  C   C4        1.0  0.4521882569083453  0.33488651111424594  0.6652247574839811  1.0000
  C   C5        1.0  0.39007243798067365  0.3772854236262251  0.7445432166916217  1.0000
  C   C6        1.0  0.3155222541688972  0.39575450654284844  0.6887850953777199  1.0000
  C   C7        1.0  0.2569971294563231  0.43572668504563306  0.7637897485715357  1.0000
  C   C8        1.0  0.18100865289449855  0.4548016576183427  0.7058163680039704  1.0000
  N   N2        1.0  0.11992683437553431  0.4701315563400432  0.6592059204487022  1.0000
  C   C9        1.0  0.2725300501563168  0.45747288519819373  0.8950610313421278  1.0000
  C   C10       1.0  0.3462955446243736  0.4393927456380959  0.9512067633519004  1.0000
  C   C11       1.0  0.4048090870286449  0.3996005911214404  0.8766598193129053  1.0000
  C   C12       1.0  0.4374568434165543  0.23905067638476682  0.5763086527083661  1.0000
  C   C13       1.0  0.4959702742228023  0.19917322657941858  0.5018119328635724  1.0000
  C   C14       1.0  0.5697306598874866  0.25428799798791313  0.5149483458661814  1.0000
  H   H1        1.0  0.5390797827904215  0.46507520135274155  0.7444449244011915  1.0000
  H   H2        1.0  0.303171736460915  0.38078911574961327  0.5867657583780761  1.0000
  H   H3        1.0  0.2276718381591753  0.48835117883880147  0.9538960532376526  1.0000
  H   H4        1.0  0.3581323005798761  0.45591569449986585  0.052853014579071766  1.0000
  H   H5        1.0  0.46129760656490015  0.3846081954689693  0.922761843400316  1.0000
  H   H6        1.0  0.3809724417052687  0.19371890308087544  0.5656531152919149  1.0000
  H   H7        1.0  0.48413759104729903  0.12510338342380378  0.43398011797132585  1.0000
  H   H8        1.0  0.6145889613269262  0.22254005236118174  0.45662433179757667  1.0000
  C   C15       1.0  0.9211339914214984  0.08011053774236032  0.6429395353774543  1.0000
  C   C16       1.0  0.9462555408432094  0.09020244224840002  0.5150196774454665  1.0000
  C   C17       1.0  0.9588961890268507  0.9777011351104499  0.45065327743202493  1.0000
  C   C18       1.0  0.9462259818728629  0.8550431013440531  0.5151705929766599  1.0000
  C   C19       1.0  0.9211195686510664  0.8427860364489601  0.6430132916213802  1.0000
  C   C20       1.0  0.9087041814187147  0.9559430251050366  0.7062327018593904  1.0000
  O   O1        1.0  0.9839718861217306  0.9834729155959748  0.3229674351173493  1.0000
  C   C21       1.0  0.999205488411593  0.10101070992732673  0.2453981345916583  1.0000
  H   H9        1.0  0.9115625187579088  0.40369497395762827  0.6916809057111604  1.0000
  H   H10       1.0  0.9558997439560847  0.18547818697293275  0.4659107290616357  1.0000
  H   H11       1.0  0.9561586451404445  0.7691790930450996  0.46459338908395287  1.0000
  H   H12       1.0  0.8893328956380535  0.9473574865304837  0.8048720792740239  1.0000
  H   H13       1.0  0.9116184569749506  0.5107382892536054  0.6913946971238574  1.0000
  H   H14       1.0  0.946367213760552  0.1587861575757563  0.2299526540019552  1.0000
  H   H15       1.0  0.018105282428197315  0.07670185724897993  0.14915984495901657  1.0000
  H   H16       1.0  0.04565821963494332  0.1588328169612485  0.2933602443063761  1.0000
  C   C22       1.0  0.9211050995134403  0.4614615593668784  0.26163253494135663  1.0000
  C   C23       1.0  0.8459474512486145  0.5075840131117044  0.25060753158287574  1.0000
  C   C24       1.0  0.808129824709425  0.5307918807594867  0.12748065020630772  1.0000
  C   C25       1.0  0.846036127682221  0.5075296854812575  0.01547309511768114  1.0000
  C   C26       1.0  0.9211484552307303  0.46143504961794884  0.024320321671891913  1.0000
  C   C27       1.0  0.9582921235865448  0.4386407222062635  0.14791347326922377  1.0000
  O   O2        1.0  0.7331097122227044  0.5768301571335677  0.11217404857484704  1.0000
  C   C28       1.0  0.6875348862462279  0.6047986549339677  0.2169065577144096  1.0000
  H   H17       1.0  0.9497424174873231  0.44388850280150377  0.5932630117330266  1.0000
  H   H18       1.0  0.8170941816260441  0.525290559054209  0.33777627145632194  1.0000
  H   H19       1.0  0.8163201471099587  0.5257658099682359  0.9212598247158478  1.0000
  H   H20       1.0  0.016246400348296053  0.4030756108661761  0.1556112614674423  1.0000
  H   H21       1.0  0.949574281723007  0.4439912415860808  0.7002594507064988  1.0000
  H   H22       1.0  0.678220493554409  0.5154200839271451  0.28224129553106847  1.0000
  H   H23       1.0  0.6309913876970686  0.6394980600620803  0.1767107152252394  1.0000
  H   H24       1.0  0.7159540013848383  0.6824533462963783  0.27253706788560894  1.0000
  Zn  Zn1       1.0  0.8370603008146681  0.457780064313307  0.6361129693543346  1.0000
  Zn  Zn2       1.0  0.005185896955878456  0.4651155912720819  0.6498386739405353  1.0000
  C   C29       1.0  0.9211386363609642  0.4562666553720313  0.8801553451043511  1.0000
  C   C30       1.0  0.9211093973120876  0.46663071881983015  0.4057965756913553  1.0000
  C   C31       1.0  0.9211180384682731  0.6986241616471383  0.637824206359731  1.0000
  C   C32       1.0  0.9211299378687361  0.2242716498436672  0.6481277788355282  1.0000
  O   O3        1.0  0.9849136273415129  0.4711436648517705  0.45938817753220396  1.0000
  O   O4        1.0  0.9849378436385318  0.45732022492696317  0.8369808615369876  1.0000
  O   O5        1.0  0.9849203505643329  0.6530269386992816  0.6412966823797173  1.0000
  O   O6        1.0  0.9849310630401251  0.2754369578693039  0.6550722546384427  1.0000
  O   O7        1.0  0.8573150773574064  0.647458695214244  0.6308793839656872  1.0000
  O   O8        1.0  0.857332570394632  0.45175354164113996  0.8265634940326654  1.0000
  O   O9        1.0  0.8573083540607658  0.46557693636959785  0.44896924872946053  1.0000
  O   O10       1.0  0.8573257897619496  0.26987022009543815  0.6446534231959913  1.0000
