data_image0
_chemical_formula_structural       NC9NC5H8C6NCH9C7NH5Zn2C4O8
_chemical_formula_sum              "N4 C32 H22 Zn2 O8"
_cell_length_a       17.807436237873137
_cell_length_b       9.273386996610926
_cell_length_c       10.302823150593486
_cell_angle_alpha    85.4662123936278
_cell_angle_beta     89.3921433004221
_cell_angle_gamma    87.7895077601149

_space_group_name_H-M_alt    "P 1"
_space_group_IT_number       1

loop_
  _space_group_symop_operation_xyz
  'x, y, z'

loop_
  _atom_site_type_symbol
  _atom_site_label
  _atom_site_symmetry_multiplicity
  _atom_site_fract_x
  _atom_site_fract_y
  _atom_site_fract_z
  _atom_site_occupancy
  N   N1        1.0  0.6990028057980514  0.5420761272889838  0.5554070248577863  1.0000
  C   C1        1.0  0.6386285201895809  0.5029735844850398  0.5444418070945529  1.0000
  C   C2        1.0  0.5635295445415929  0.454334327434329  0.530802266702346  1.0000
  C   C3        1.0  0.5458709445872105  0.37497907382073703  0.4259446176745425  1.0000
  C   C4        1.0  0.4729543832324394  0.3276302099492143  0.41261907479644777  1.0000
  C   C5        1.0  0.4166499910482881  0.3592170911422335  0.5041193319794859  1.0000
  C   C6        1.0  0.3391577865593011  0.3090251374629256  0.4900395990671031  1.0000
  C   C7        1.0  0.2764860042508543  0.3998719348206404  0.5158420311143348  1.0000
  C   C8        1.0  0.20342836836751207  0.35229745609285  0.5025304836610689  1.0000
  C   C9        1.0  0.13969018745471198  0.446134865743589  0.5286924803600388  1.0000
  N   N2        1.0  0.0884577136971628  0.5215736510483491  0.5497260086160278  1.0000
  C   C10       1.0  0.1924605332242538  0.21358951434795115  0.4633915672448188  1.0000
  C   C11       1.0  0.2542750296557397  0.12272732445757509  0.4375807698842211  1.0000
  C   C12       1.0  0.3272156244511806  0.16986339290120234  0.4506904619820153  1.0000
  C   C13       1.0  0.4349969996613456  0.43912168026652276  0.6091953656970204  1.0000
  C   C14       1.0  0.5079675861746983  0.4862589800969636  0.6223656056890816  1.0000
  H   H1        1.0  0.5884021623846193  0.349994133030197  0.3542897674737895  1.0000
  H   H2        1.0  0.46036717854033415  0.26797937007704425  0.3298090167492769  1.0000
  H   H3        1.0  0.2843928473925501  0.508174129636801  0.5445569981340823  1.0000
  H   H4        1.0  0.1362017618574459  0.17576893521139067  0.45285344310126874  1.0000
  H   H5        1.0  0.24566487305946488  0.015336427779378155  0.40766448315464526  1.0000
  H   H6        1.0  0.3742548624167144  0.09680804023666512  0.4317512516233337  1.0000
  H   H7        1.0  0.3931859278461113  0.4635076235273519  0.6821451519496842  1.0000
  H   H8        1.0  0.5210757447061996  0.5472661348263436  0.7041324499285175  1.0000
  C   C15       1.0  0.8960447419131524  0.10804907506647465  0.5531707501769412  1.0000
  C   C16       1.0  0.9092397875341892  0.19083004608756382  0.4355910427516112  1.0000
  C   C17       1.0  0.9153591754604046  0.12600501903638459  0.31810729145866135  1.0000
  C   C18       1.0  0.9083760872322992  0.9760719720429833  0.315200392938104  1.0000
  C   C19       1.0  0.8965053576622022  0.8922583694593758  0.43235300564499973  1.0000
  C   C20       1.0  0.8914229995170545  0.9555892384052748  0.5519734900987374  1.0000
  N   N3        1.0  0.9138602019060443  0.9062439638495519  0.19530218304412772  1.0000
  C   C21       1.0  0.9263790416263327  0.9834814314922374  0.06842731531751367  1.0000
  H   H9        1.0  0.911397755049615  0.3693855319508257  0.7660939134394809  1.0000
  H   H10       1.0  0.9130727316649189  0.307274158295397  0.4339423293720406  1.0000
  H   H11       1.0  0.9248361367645133  0.19410824108602576  0.22978194278892405  1.0000
  H   H12       1.0  0.8929583022008846  0.7760440310611302  0.430356650487276  1.0000
  H   H13       1.0  0.919092173019334  0.8227706438835178  0.86778180002045  1.0000
  H   H14       1.0  0.9085473086102606  0.7941565326611357  0.19807186542536126  1.0000
  H   H15       1.0  0.8797923969722238  0.06450749991756298  0.046549635610669826  1.0000
  H   H16       1.0  0.9807716147399611  0.03816974033680421  0.0678433901634774  1.0000
  H   H17       1.0  0.928273460622386  0.9059451149266239  0.9915403552693535  1.0000
  C   C22       1.0  0.8937338881514963  0.5318191838773121  0.17132402894538545  1.0000
  C   C23       1.0  0.8149281345318735  0.5464243864390896  0.1706285031514121  1.0000
  C   C24       1.0  0.7757215299147744  0.5536904939232961  0.0531799649311504  1.0000
  C   C25       1.0  0.8149281204331578  0.546424292977626  0.9353275096491352  1.0000
  C   C26       1.0  0.8937338877436745  0.5318191764038236  0.9338201955774488  1.0000
  C   C27       1.0  0.9327250127045981  0.5245928524950434  0.052371260786649325  1.0000
  C   C28       1.0  0.6949341069303435  0.5686627324412341  0.053596044561685874  1.0000
  N   N4        1.0  0.630007414349643  0.5806956967074866  0.0539304017035076  1.0000
  H   H18       1.0  0.923583867214227  0.5262873970551152  0.49890970556592196  1.0000
  H   H19       1.0  0.7838481485138871  0.5521844910405818  0.26121283506723114  1.0000
  H   H20       1.0  0.7838481788974432  0.5521843832186288  0.8450632982848392  1.0000
  H   H21       1.0  0.9934971711463412  0.5133298709594858  0.052058282204400896  1.0000
  H   H22       1.0  0.9235838432993978  0.5262871667246514  0.6059270059528434  1.0000
  Zn  Zn1       1.0  0.8113910993333576  0.5361557049111709  0.553775120139284  1.0000
  Zn  Zn2       1.0  0.97606946611101  0.5274823101107304  0.5513686031811644  1.0000
  C   C29       1.0  0.8937635446271502  0.526070270459523  0.7897002302951537  1.0000
  C   C30       1.0  0.8936988091706916  0.5375694706767993  0.3154435916000573  1.0000
  C   C31       1.0  0.8922927518735564  0.7953863239297787  0.5470263011224921  1.0000
  C   C32       1.0  0.8951695551856749  0.2682516863640805  0.5581175932598594  1.0000
  O   O1        1.0  0.9561816526392735  0.5362015155816817  0.36289818162524323  1.0000
  O   O2        1.0  0.9562677770813858  0.5208542309260324  0.7404187773920963  1.0000
  O   O3        1.0  0.9550792508752544  0.7383303944406601  0.5444578728185199  1.0000
  O   O4        1.0  0.9573701225955423  0.3187253653499593  0.5588589896616032  1.0000
  O   O5        1.0  0.8300903866521718  0.7449126526333172  0.5462847344732396  1.0000
  O   O6        1.0  0.8312789034002616  0.5274382229225267  0.7422455673740707  1.0000
  O   O7        1.0  0.831192779282396  0.5427854572873699  0.3647234107715709  1.0000
  O   O8        1.0  0.8323812492918746  0.3253092967341171  0.5606843161595425  1.0000
