data_image0
_chemical_formula_structural       NC8NH4C7NH5C6FH3Zn2C4O8
_chemical_formula_sum              "N3 C25 H12 F1 Zn2 O8"
_cell_length_a       11.048855714531884
_cell_length_b       9.275154477615127
_cell_length_c       9.275646106892307
_cell_angle_alpha    85.17883559390603
_cell_angle_beta     90.02253791369307
_cell_angle_gamma    89.43371274831733

_space_group_name_H-M_alt    "P 1"
_space_group_IT_number       1

loop_
  _space_group_symop_operation_xyz
  'x, y, z'

loop_
  _atom_site_type_symbol
  _atom_site_label
  _atom_site_symmetry_multiplicity
  _atom_site_fract_x
  _atom_site_fract_y
  _atom_site_fract_z
  _atom_site_occupancy
  N   N1        1.0  0.12592543229958975  0.5947710321090851  0.41428961481840165  1.0000
  C   C1        1.0  0.07185907805719527  0.5377436924128376  0.32896272190455544  1.0000
  C   C2        1.0  0.0044009398288666875  0.46658983299333817  0.222498844163906  1.0000
  C   C3        1.0  0.8766841860653035  0.46658964138243886  0.2224989452606563  1.0000
  C   C4        1.0  0.8144626365308575  0.39625087265407055  0.11725494444366681  1.0000
  C   C5        1.0  0.8784327747608477  0.32646848490420965  0.012843343186267786  1.0000
  C   C6        1.0  0.004838988103233354  0.32646837456589317  0.012843365442112509  1.0000
  C   C7        1.0  0.06772017451946444  0.3962509713606319  0.11725491708278703  1.0000
  C   C8        1.0  0.8081156563520197  0.5377437674671544  0.32896270905273806  1.0000
  N   N2        1.0  0.7531593180968423  0.5947710744627939  0.41428964381614164  1.0000
  H   H1        1.0  0.716407268131504  0.3953700749415978  0.1159363938697211  1.0000
  H   H2        1.0  0.8299572516319259  0.27234362878699425  0.9318598909793923  1.0000
  H   H3        1.0  0.05415929195122926  0.27234373818867086  0.9318598908043447  1.0000
  H   H4        1.0  0.1657892804159089  0.3953700229744761  0.1159366691473236  1.0000
  C   C9        1.0  0.44304979890612645  0.17139952181028148  0.41261952390958173  1.0000
  C   C10       1.0  0.4097751255060911  0.25593345253935773  0.2853685906327721  1.0000
  C   C11       1.0  0.3666588241442002  0.19117810516228959  0.16485832852918558  1.0000
  C   C12       1.0  0.35610750422936605  0.04100092296372337  0.17017973004912443  1.0000
  C   C13       1.0  0.39050269675270777  0.9552901998693201  0.2945300797166517  1.0000
  C   C14       1.0  0.4360466707869023  0.018131343568623455  0.4159722097091836  1.0000
  C   C15       1.0  0.3317733134781793  0.27931017761132426  0.0360736896269509  1.0000
  N   N3        1.0  0.3037350383874516  0.3501521065966897  0.9325638278381845  1.0000
  H   H5        1.0  0.46666598097659856  0.2442987079717422  0.7668841658785315  1.0000
  H   H6        1.0  0.4147160892178435  0.37293844670880505  0.28108629783156225  1.0000
  H   H7        1.0  0.3223250221853895  0.9898604729283367  0.07756002495022177  1.0000
  H   H8        1.0  0.38414726928675  0.8388239560268218  0.29440306588221854  1.0000
  H   H9        1.0  0.45708358132686366  0.7168338371687996  0.6533395969847648  1.0000
  C   C16       1.0  0.43937005207148505  0.5992778882433105  0.9904732688457201  1.0000
  C   C17       1.0  0.5500631351803414  0.6143460855867742  0.06259378921437199  1.0000
  C   C18       1.0  0.659367989652578  0.6158770405040763  0.9871540382763216  1.0000
  C   C19       1.0  0.6599005956617845  0.6022219826204236  0.8387237164026867  1.0000
  C   C20       1.0  0.5510841849689754  0.5895576559961504  0.7646807552469488  1.0000
  C   C21       1.0  0.43972636430547374  0.5902529745646419  0.8381184175737242  1.0000
  F   F1        1.0  0.7652492303905946  0.6288933556485696  0.058640795048218175  1.0000
  H   H10       1.0  0.15969475627692423  0.4821483153857453  0.10316238731988236  1.0000
  H   H11       1.0  0.7447670805062835  0.6028251203447734  0.7804107459593407  1.0000
  H   H12       1.0  0.2503332617114767  0.5173249356870264  0.5629838957502162  1.0000
  Zn  Zn1       1.0  0.30693163260159945  0.5947670878707172  0.4142979393775593  1.0000
  Zn  Zn2       1.0  0.5721532476901361  0.5947630679776768  0.41429308402764475  1.0000
  C   C22       1.0  0.4397038529264745  0.5862153717740766  0.6778725951524609  1.0000
  C   C23       1.0  0.439383908591299  0.6033166016131288  0.1507185770583364  1.0000
  C   C24       1.0  0.43736175821391554  0.8581422206465955  0.40958717771835396  1.0000
  C   C25       1.0  0.44172592716083003  0.33138801977434307  0.4190040645818585  1.0000
  O   O1        1.0  0.5400388316990764  0.6046642154409989  0.2044964988691716  1.0000
  O   O2        1.0  0.5403460076813112  0.584863623738435  0.6240905684746685  1.0000
  O   O3        1.0  0.5384533803988835  0.8044479772298365  0.407448201693242  1.0000
  O   O4        1.0  0.5419313683485383  0.3850798734165457  0.42113875747875773  1.0000
  O   O5        1.0  0.33715342143606075  0.8044502824348709  0.40745226592051753  1.0000
  O   O6        1.0  0.3390460343543793  0.5848676619127572  0.6240945626066  1.0000
  O   O7        1.0  0.3387388581386641  0.6046682218499784  0.20449875758770086  1.0000
  O   O8        1.0  0.34063139491395505  0.38508386836159825  0.42114112436319884  1.0000
