data_image0
_chemical_formula_structural       NC8NC6H8C6SCNH4C7NC2NH6Zn2C4O8
_chemical_formula_sum              "N5 C34 H18 S1 Zn2 O8"
_cell_length_a       17.457602349358154
_cell_length_b       10.302215558581764
_cell_length_c       9.27399911348925
_cell_angle_alpha    85.06957531056571
_cell_angle_beta     92.55204972901187
_cell_angle_gamma    91.70712283406877

_space_group_name_H-M_alt    "P 1"
_space_group_IT_number       1

loop_
  _space_group_symop_operation_xyz
  'x, y, z'

loop_
  _atom_site_type_symbol
  _atom_site_label
  _atom_site_symmetry_multiplicity
  _atom_site_fract_x
  _atom_site_fract_y
  _atom_site_fract_z
  _atom_site_occupancy
  N   N1        1.0  0.7274877593611653  0.46464170425320167  0.4741404665779975  1.0000
  C   C1        1.0  0.6664375617048897  0.4188221621177337  0.4623391871340245  1.0000
  C   C2        1.0  0.5904885007667181  0.3618282800569129  0.44766899817260136  1.0000
  C   C3        1.0  0.5317075970189776  0.40131608537067803  0.5308918302761036  1.0000
  C   C4        1.0  0.45719490587215134  0.34643448563029655  0.516904624444434  1.0000
  C   C5        1.0  0.3948081864968069  0.3881256775123495  0.6050407422598483  1.0000
  C   C6        1.0  0.3204589924474154  0.4070837419652886  0.5430856190594631  1.0000
  C   C7        1.0  0.2616776740303173  0.44638671119297757  0.6264283707679391  1.0000
  C   C8        1.0  0.1858981445503678  0.4659701150171607  0.5620117786520469  1.0000
  N   N2        1.0  0.12498431755895281  0.48170879226318575  0.5102210055324086  1.0000
  C   C9        1.0  0.2767516682499139  0.46697018842700455  0.7722912827888799  1.0000
  C   C10       1.0  0.35031488887218154  0.4483975767829309  0.8346771121826864  1.0000
  C   C11       1.0  0.4090830476082338  0.4092705590322048  0.7518429501325146  1.0000
  C   C12       1.0  0.44275660888861135  0.25140053395230577  0.4181024051121127  1.0000
  C   C13       1.0  0.5015244599710518  0.21218779258212295  0.33532404707131797  1.0000
  C   C14       1.0  0.5752504966949685  0.26717686457614387  0.3499223063453374  1.0000
  H   H1        1.0  0.5438350756223492  0.47590082606223616  0.604934263058249  1.0000
  H   H2        1.0  0.3084655590791363  0.39302163619143515  0.42972625103915146  1.0000
  H   H3        1.0  0.23169238900286046  0.4973236262049401  0.8376668468068893  1.0000
  H   H4        1.0  0.36179621891027836  0.46402025934228003  0.9476219741109271  1.0000
  H   H5        1.0  0.465405445293264  0.3938738137233313  0.8030687984707898  1.0000
  H   H6        1.0  0.38629993233164334  0.20617083156571736  0.40626107869658484  1.0000
  H   H7        1.0  0.48991517812137003  0.13872985474245625  0.259950339127059  1.0000
  H   H8        1.0  0.6203078702136076  0.23594941706555628  0.2851145221230893  1.0000
  C   C15       1.0  0.9261636449033557  0.09190022364509032  0.49213442768693433  1.0000
  C   C16       1.0  0.0028913798603023  0.09076887941534872  0.5445155644224234  1.0000
  C   C17       1.0  0.04107297240763974  0.9731615451016199  0.5710389684279477  1.0000
  C   C18       1.0  0.0030903580474752634  0.855601261200549  0.5446558385580721  1.0000
  C   C19       1.0  0.9263156956075675  0.854440437889672  0.4922401468201423  1.0000
  C   C20       1.0  0.8882651640375856  0.9731233626462452  0.4663223676856574  1.0000
  S   S1        1.0  0.13910258239248074  0.973244701755448  0.6373187912558351  1.0000
  C   C21       1.0  0.11321963580195749  0.9578583349117091  0.8199248677440751  1.0000
  N   N3        1.0  0.09622773671280616  0.947770642835604  0.9396366453570243  1.0000
  H   H9        1.0  0.033287827741483415  0.1809076536453469  0.5651842869081991  1.0000
  H   H10       1.0  0.03362319694323835  0.7654634848571964  0.5654207859511873  1.0000
  H   H11       1.0  0.8290895407990679  0.9731460760823767  0.4259441765569463  1.0000
  H   H12       1.0  0.7816288359417742  0.6450473707388399  0.39329635391153284  1.0000
  C   C22       1.0  0.9275650116702553  0.47655016818995577  0.06845661999973407  1.0000
  C   C23       1.0  0.9877610344460303  0.41696420754097296  0.1523976096890678  1.0000
  C   C24       1.0  0.04287809241970142  0.3479168794288854  0.08873977615152495  1.0000
  C   C25       1.0  0.03928039362310165  0.336053429852779  0.9391154084498802  1.0000
  C   C26       1.0  0.9802391515309352  0.3978815749615803  0.8537208579646021  1.0000
  C   C27       1.0  0.9249143532939502  0.4697905268782583  0.9159179510329495  1.0000
  C   C28       1.0  0.0981279000465878  0.2609288734574078  0.8737520485280967  1.0000
  N   N4        1.0  0.16234773911471725  0.21832130067691935  0.9476145952105217  1.0000
  C   C29       1.0  0.1994646698994942  0.15495056346733008  0.8516528459220878  1.0000
  C   C30       1.0  0.157569954996693  0.159622419069424  0.7223087887348566  1.0000
  N   N5        1.0  0.09383637866540553  0.22621414781363414  0.7363651499145871  1.0000
  H   H13       1.0  0.8459524944510427  0.6369256524083593  0.3276456402952226  1.0000
  H   H14       1.0  0.08784844179960483  0.30201758574185256  0.15754366759802818  1.0000
  H   H15       1.0  0.8052574158494279  0.5379317800916639  0.6193034511614818  1.0000
  H   H16       1.0  0.2537123641145791  0.10786403980292113  0.8749393634513849  1.0000
  H   H17       1.0  0.1722835856403686  0.11690053405096214  0.6249464322707317  1.0000
  H   H18       1.0  0.050449008365110126  0.2440309702459953  0.6567238727037239  1.0000
  Zn  Zn1       1.0  0.8421966529380897  0.4695633488836138  0.48456086163970097  1.0000
  Zn  Zn2       1.0  0.010275370659061924  0.476776408202726  0.49981242256375613  1.0000
  C   C31       1.0  0.925412641156594  0.46589576134819355  0.7557287751121105  1.0000
  C   C32       1.0  0.9270612177386727  0.4804457115914218  0.22864481749032123  1.0000
  C   C33       1.0  0.9263010118347214  0.7103498246110169  0.4864698171087715  1.0000
  C   C34       1.0  0.9261727891553108  0.2359900853348656  0.4979038470025513  1.0000
  O   O1        1.0  0.9906771361888711  0.48448474561575416  0.28819332700631395  1.0000
  O   O2        1.0  0.9893645814836639  0.4673302962798602  0.7077554319323518  1.0000
  O   O3        1.0  0.9900810874961297  0.6647299950402688  0.4903268404554666  1.0000
  O   O4        1.0  0.9899605731627723  0.28708505454492217  0.5056218050892924  1.0000
  O   O5        1.0  0.8625113930773858  0.6592547000814282  0.4787514739019662  1.0000
  O   O6        1.0  0.8617948876131619  0.46185656185476304  0.6961799886577615  1.0000
  O   O7        1.0  0.8631074477865204  0.47901097978568213  0.27661614889181485  1.0000
  O   O8        1.0  0.8623908844170615  0.28161127856528423  0.49404473515650177  1.0000
