data_image0
_chemical_formula_structural       NC9NC5H8C12SCH12C12NCOH11Zn2C4O8
_chemical_formula_sum              "N3 C44 H31 S1 O9 Zn2"
_cell_length_a       17.807436237873137
_cell_length_b       10.299776766347529
_cell_length_c       10.299148425239203
_cell_angle_alpha    85.5384344644465
_cell_angle_beta     89.37684199315078
_cell_angle_gamma    88.37162683502939

_space_group_name_H-M_alt    "P 1"
_space_group_IT_number       1

loop_
  _space_group_symop_operation_xyz
  'x, y, z'

loop_
  _atom_site_type_symbol
  _atom_site_label
  _atom_site_symmetry_multiplicity
  _atom_site_fract_x
  _atom_site_fract_y
  _atom_site_fract_z
  _atom_site_occupancy
  N   N1        1.0  0.7073677801338115  0.38834026198764027  0.5570518947110241  1.0000
  C   C1        1.0  0.646788432826735  0.3531551302763982  0.546026371283943  1.0000
  C   C2        1.0  0.5714343830107823  0.3093887012239678  0.5323118172804553  1.0000
  C   C3        1.0  0.5533718628241585  0.23801667886320496  0.4272995079348587  1.0000
  C   C4        1.0  0.48020700147438733  0.19541138671949154  0.4139009228479764  1.0000
  C   C5        1.0  0.42405601683245947  0.22380060156221138  0.5054821846753688  1.0000
  C   C6        1.0  0.3463005962264311  0.17863703165001696  0.49132504164614116  1.0000
  C   C7        1.0  0.2841051845960478  0.2603823905295124  0.5172677093831637  1.0000
  C   C8        1.0  0.2107980541037702  0.21757405527275253  0.5038828019559296  1.0000
  C   C9        1.0  0.1475519982056866  0.3020106102927729  0.530189459417661  1.0000
  N   N2        1.0  0.0967151587508814  0.3698917584248588  0.5513392853457066  1.0000
  C   C10       1.0  0.19910284212743704  0.09276239223644422  0.4645298694330214  1.0000
  C   C11       1.0  0.26044088775898155  0.01100318452121773  0.4385788110616096  1.0000
  C   C12       1.0  0.333628689738985  0.0534170624628536  0.451761156164034  1.0000
  C   C13       1.0  0.44280981697559785  0.2956668994949976  0.6107137510584817  1.0000
  C   C14       1.0  0.5160276082143324  0.33808186127640716  0.6239566694765166  1.0000
  H   H1        1.0  0.5957816298311669  0.2155607739488936  0.3555808655059485  1.0000
  H   H2        1.0  0.46731676336977906  0.14176309349721494  0.3309730489582048  1.0000
  H   H3        1.0  0.2925802316875438  0.35783520861121243  0.5461490580374837  1.0000
  H   H4        1.0  0.1426457219277209  0.05873076603663052  0.4539334431400446  1.0000
  H   H5        1.0  0.2512675220279558  0.9143709531859333  0.4084969789168352  1.0000
  H   H6        1.0  0.380284581405232  0.9876799946800001  0.4327098811129433  1.0000
  H   H7        1.0  0.401116838009054  0.317583228624581  0.6837269773237551  1.0000
  H   H8        1.0  0.5294461237975349  0.392951161460684  0.7058428651184518  1.0000
  C   C15       1.0  0.9021158941824917  0.9977473614369388  0.554192925255278  1.0000
  C   C16       1.0  0.9066101378705692  0.985916083715035  0.6906498430803447  1.0000
  C   C17       1.0  0.9088150746423649  0.8627858852213959  0.7598000696953877  1.0000
  C   C18       1.0  0.9064664818266734  0.7506351079009884  0.6906671421514841  1.0000
  C   C19       1.0  0.9019742447156872  0.7604743433449153  0.5542094454542952  1.0000
  C   C20       1.0  0.8998236746717784  0.8844678303262689  0.48673619526255085  1.0000
  C   C21       1.0  0.9135611981345924  0.8513340267731517  0.9041562136710268  1.0000
  C   C22       1.0  0.8705534710631921  0.7598807596589418  0.9788347810760658  1.0000
  C   C23       1.0  0.8750426921773374  0.7493366088043151  0.11468714384548484  1.0000
  C   C24       1.0  0.9223520600772255  0.8299752963165467  0.17767048235002436  1.0000
  C   C25       1.0  0.9655388664424711  0.9208457224377737  0.10436244245233316  1.0000
  C   C26       1.0  0.961159808308563  0.9317345465106563  0.9684980476671423  1.0000
  S   S1        1.0  0.9281951943443203  0.81598123693325  0.3519865389865333  1.0000
  C   C27       1.0  0.85269924267452  0.9356121980031269  0.3726242244664829  1.0000
  H   H9        1.0  0.9004329395705644  0.32970769680987294  0.5021962116187659  1.0000
  H   H10       1.0  0.9073701940532973  0.07268920824297176  0.7436005000603607  1.0000
  H   H11       1.0  0.9091854350667997  0.6554706874845535  0.7433929086337379  1.0000
  H   H12       1.0  0.8963570704155599  0.8928266454020934  0.3814654777509121  1.0000
  H   H13       1.0  0.9002249904249496  0.43677154411316255  0.5022183706474483  1.0000
  H   H14       1.0  0.8327416960691668  0.6977278391270773  0.9322723396352747  1.0000
  H   H15       1.0  0.8414457845521665  0.678843174164156  0.17090523849711736  1.0000
  H   H16       1.0  0.002550831334368278  0.983091757973182  0.15252565768048965  1.0000
  H   H17       1.0  0.9957047002497181  0.00181352680235493  0.9136791795292906  1.0000
  H   H18       1.0  0.8677459464642613  0.03124918679213584  0.3235225899133176  1.0000
  H   H19       1.0  0.8439783440821123  0.9466612141425956  0.47803836849558295  1.0000
  H   H20       1.0  0.7998409937013365  0.9026017246836878  0.33127491512857343  1.0000
  C   C28       1.0  0.9021015349034118  0.3792640184374929  0.17280413569325082  1.0000
  C   C29       1.0  0.9783181286883161  0.4112111890263275  0.16771711477105167  1.0000
  C   C30       1.0  0.016842242459056633  0.4272005242252672  0.048007497884379406  1.0000
  C   C31       1.0  0.9781598167576925  0.4108785433060387  0.9324622761251189  1.0000
  C   C32       1.0  0.9019885698449526  0.37895769742878127  0.9355981760949454  1.0000
  C   C33       1.0  0.8644063051878239  0.3633285988967865  0.05626836685790115  1.0000
  C   C34       1.0  0.09742486101748216  0.4609746830299375  0.04371936795343245  1.0000
  C   C35       1.0  0.1479178284616356  0.40121180438096626  0.959379401180439  1.0000
  C   C36       1.0  0.22370965491931957  0.4331335515827381  0.9554939265497562  1.0000
  C   C37       1.0  0.2507833803260402  0.5241227479537682  0.03660742709826681  1.0000
  C   C38       1.0  0.20021551242634156  0.5857353725176064  0.11938013106699774  1.0000
  C   C39       1.0  0.12438971493629757  0.5539219024474804  0.12336294738507725  1.0000
  N   N3        1.0  0.3287988396357513  0.5566327400777615  0.028928057286173425  1.0000
  C   C40       1.0  0.3720056009382453  0.5912581355899813  0.13702491242799875  1.0000
  O   O1        1.0  0.34658826314348945  0.5783000859818916  0.25175774787048844  1.0000
  H   H21       1.0  0.7583661387399302  0.3181957609847632  0.38975673693763996  1.0000
  H   H22       1.0  0.008122757999896368  0.4219942475171335  0.2572064514170478  1.0000
  H   H23       1.0  0.007305836129406054  0.4248890407152852  0.8398020345918779  1.0000
  H   H24       1.0  0.8056543977374069  0.33870367558834946  0.059402247492429845  1.0000
  H   H25       1.0  0.8726932727641392  0.3666436810251722  0.6093311564835235  1.0000
  H   H26       1.0  0.12899046611187504  0.3285996112173655  0.8974828722569194  1.0000
  H   H27       1.0  0.26167812952381375  0.38579700783349624  0.8899810728704627  1.0000
  H   H28       1.0  0.21871614642349302  0.6605323012243272  0.1788763532941584  1.0000
  H   H29       1.0  0.08650939293989056  0.6039204955331059  0.1869819840260014  1.0000
  H   H30       1.0  0.35769484311467226  0.546324331868068  0.9413208474358896  1.0000
  H   H31       1.0  0.4284084616875179  0.625624989178653  0.1203741894717214  1.0000
  Zn  Zn1       1.0  0.8197250215748473  0.3830129540704198  0.5554108703186225  1.0000
  Zn  Zn2       1.0  0.9843578994978832  0.37520847589208817  0.5529909869084164  1.0000
  C   C41       1.0  0.9020092141767538  0.3738420033475764  0.7914137115230407  1.0000
  C   C42       1.0  0.9020755043586396  0.3843809799568243  0.3169882467902423  1.0000
  C   C43       1.0  0.9019978988446622  0.6163049766985984  0.5490308084278952  1.0000
  C   C44       1.0  0.9020867637926043  0.14191644894029043  0.5593712199211103  1.0000
  O   O2        1.0  0.964544088502753  0.38313085445637834  0.36445941834711437  1.0000
  O   O3        1.0  0.9644931752680796  0.36916773092273947  0.7421055305553166  1.0000
  O   O4        1.0  0.9644831955701859  0.5649596876500973  0.5463796338156928  1.0000
  O   O5        1.0  0.964554012035292  0.18733890972147832  0.5601852185308329  1.0000
  O   O6        1.0  0.839528852856318  0.5708825229057313  0.5482166395151618  1.0000
  O   O7        1.0  0.8395388322712176  0.37509212650858686  0.743942467038019  1.0000
  O   O8        1.0  0.839589745795495  0.3890552054110176  0.36629479331227244  1.0000
  O   O9        1.0  0.8395996693122679  0.19326325134836164  0.5620206908708529  1.0000
