data_image0
_chemical_formula_structural       NC6NCNCH5C9H6C6H4Zn2C4O8
_chemical_formula_sum              "N3 C27 H15 Zn2 O8"
_cell_length_a       14.933214217465613
_cell_length_b       9.275152443626249
_cell_length_c       10.681121600428288
_cell_angle_alpha    85.36323627709002
_cell_angle_beta     89.96595612778619
_cell_angle_gamma    90.60755784757023

_space_group_name_H-M_alt    "P 1"
_space_group_IT_number       1

loop_
  _space_group_symop_operation_xyz
  'x, y, z'

loop_
  _atom_site_type_symbol
  _atom_site_label
  _atom_site_symmetry_multiplicity
  _atom_site_fract_x
  _atom_site_fract_y
  _atom_site_fract_z
  _atom_site_occupancy
  N   N1        1.0  0.8530562117956869  0.5796802156479826  0.6131665500033923  1.0000
  C   C1        1.0  0.7755721500574585  0.5806772861207321  0.6123030405332475  1.0000
  C   C2        1.0  0.6791814369908629  0.5819203783034317  0.6112263513391878  1.0000
  C   C3        1.0  0.6307615037656192  0.48612006928429446  0.6942106338220673  1.0000
  C   C4        1.0  0.5372348132467453  0.4872033643250766  0.6932722860731746  1.0000
  C   C5        1.0  0.4912253607768506  0.5840320795996008  0.6093972078671956  1.0000
  C   C6        1.0  0.39463671941641776  0.581922535817562  0.6112245457923546  1.0000
  N   N2        1.0  0.31714013784659306  0.580162710245006  0.6127486251144638  1.0000
  C   C7        1.0  0.5397515799784973  0.6810420852890959  0.5253651714047805  1.0000
  N   N3        1.0  0.49506554223764193  0.7816843178813826  0.4381869466792833  1.0000
  C   C8        1.0  0.6337526202499258  0.6789922811826536  0.5271408567124132  1.0000
  H   H1        1.0  0.6652895470714915  0.41058796841868533  0.7596381223802497  1.0000
  H   H2        1.0  0.5006858005899525  0.4123066512616659  0.7581492771079138  1.0000
  H   H3        1.0  0.531863006034832  0.8527675338896806  0.3766131049258003  1.0000
  H   H4        1.0  0.4253573557524844  0.7870393429884903  0.43354837110052524  1.0000
  H   H5        1.0  0.671421384683103  0.7531354100831928  0.4629164937469168  1.0000
  C   C9        1.0  0.08246080761547005  0.15628640878697486  0.6142384967431243  1.0000
  C   C10       1.0  0.05015678128111322  0.23899221730746634  0.5078771028470039  1.0000
  C   C11       1.0  0.02617671608151696  0.17352593336659816  0.39951631820298417  1.0000
  C   C12       1.0  0.034124145240178816  0.02419225592883723  0.3953713274141095  1.0000
  C   C13       1.0  0.06467705854348971  0.9397964800690752  0.5008351607262089  1.0000
  C   C14       1.0  0.08774403916139972  0.003545419639510603  0.6116875324039779  1.0000
  C   C15       1.0  0.009862779847147124  0.9570175161249078  0.2831564053146358  1.0000
  C   C16       1.0  0.9895495556455792  0.9007410368983936  0.18919400042876955  1.0000
  C   C17       1.0  0.9649034732862445  0.8324474841517553  0.07518710084008684  1.0000
  H   H6        1.0  0.2111347200261593  0.2380716445845172  0.8642249560841958  1.0000
  H   H7        1.0  0.0022345540760406713  0.23974080137536413  0.31843147461043864  1.0000
  H   H8        1.0  0.17150567755958213  0.708333111438293  0.7826737018139462  1.0000
  H   H9        1.0  0.9812739460527544  0.7157426745371603  0.08687169619474511  1.0000
  H   H10       1.0  0.8920186668512003  0.8449542777306994  0.05810860504566006  1.0000
  H   H11       1.0  0.0027205932490530506  0.8848353254311887  0.9940923729919477  1.0000
  C   C18       1.0  0.08510243943487034  0.5799158776436917  0.2452178024819882  1.0000
  C   C19       1.0  0.020506978138627355  0.49961643274696216  0.1840945916467418  1.0000
  C   C20       1.0  0.020506922805829903  0.49961652519042127  0.05321245146568799  1.0000
  C   C21       1.0  0.08510236947888039  0.5799159482872129  0.9807082380088069  1.0000
  C   C22       1.0  0.149644513882657  0.6601488492136842  0.04183111631639802  1.0000
  C   C23       1.0  0.1496445022861448  0.6601488268320528  0.17272341505711108  1.0000
  H   H12       1.0  0.96987400608608  0.43667393271881877  0.23736601403215365  1.0000
  H   H13       1.0  0.9698739878073743  0.43667400060560024  0.008861984619009226  1.0000
  H   H14       1.0  0.20028409842691816  0.7230996433808488  0.9886039984397837  1.0000
  H   H15       1.0  0.20028405299351104  0.7230995927622927  0.21702836611707688  1.0000
  Zn  Zn1       1.0  0.9869807845576258  0.5798155822742217  0.6130531968377222  1.0000
  Zn  Zn2       1.0  0.18321547662349302  0.5800155087464475  0.6128722978211087  1.0000
  C   C24       1.0  0.08506457175853632  0.5741688428588367  0.8417021180829753  1.0000
  C   C25       1.0  0.08513384364961786  0.5856640705685292  0.38422349203305534  1.0000
  C   C26       1.0  0.08674078110878969  0.8433953982794345  0.6071794501919172  1.0000
  C   C27       1.0  0.08345755653035214  0.3164357818528867  0.6187462319694621  1.0000
  O   O1        1.0  0.1596143868991029  0.5876627940180821  0.4308064399940024  1.0000
  O   O2        1.0  0.15952161243907814  0.5723207706731197  0.7949815147397169  1.0000
  O   O3        1.0  0.16087416879609884  0.7897246179870434  0.6056027975401082  1.0000
  O   O4        1.0  0.15826176364483047  0.370258956955765  0.6201850633281272  1.0000
  O   O5        1.0  0.011934430571028502  0.7895721339982489  0.6057404313858443  1.0000
  O   O6        1.0  0.010581885017760142  0.5721700199127158  0.7951190765952436  1.0000
  O   O7        1.0  0.010674659223946835  0.5875119929860946  0.430942496378248  1.0000
  O   O8        1.0  0.009322035901665917  0.3701081456055162  0.620321213632997  1.0000
