data_image0
_chemical_formula_structural       NC9NC5H8C7OC4NC3H8C6SCOC6H10Zn2C4O8
_chemical_formula_sum              "N3 C45 H26 O10 S1 Zn2"
_cell_length_a       17.807436237873137
_cell_length_b       10.299371701877256
_cell_length_c       10.302041481415108
_cell_angle_alpha    85.56120269447774
_cell_angle_beta     89.38796050765288
_cell_angle_gamma    88.40037932452064

_space_group_name_H-M_alt    "P 1"
_space_group_IT_number       1

loop_
  _space_group_symop_operation_xyz
  'x, y, z'

loop_
  _atom_site_type_symbol
  _atom_site_label
  _atom_site_symmetry_multiplicity
  _atom_site_fract_x
  _atom_site_fract_y
  _atom_site_fract_z
  _atom_site_occupancy
  N   N1        1.0  0.7076081869048154  0.3882474720838456  0.5579178111091632  1.0000
  C   C1        1.0  0.6470174528856291  0.35306162713487216  0.5468840440655662  1.0000
  C   C2        1.0  0.5716492392518869  0.30929431089215204  0.5331592359158793  1.0000
  C   C3        1.0  0.5535544284750439  0.2379155196964211  0.4281539972126784  1.0000
  C   C4        1.0  0.48037577375192564  0.1953093608164742  0.41474544380970263  1.0000
  C   C5        1.0  0.42424317370179465  0.22370447563262405  0.5063095535193496  1.0000
  C   C6        1.0  0.34647313659910156  0.17853998990060238  0.49214183038150794  1.0000
  C   C7        1.0  0.2843042160229022  0.26028702690682093  0.5181035562722744  1.0000
  C   C8        1.0  0.2109832350463743  0.21747782577582828  0.5047086107034784  1.0000
  C   C9        1.0  0.1477644878199795  0.3019160826103424  0.5310350948323621  1.0000
  N   N2        1.0  0.0969496027693728  0.36979859895394873  0.5522008597142162  1.0000
  C   C10       1.0  0.1992476042179953  0.09266361708183957  0.4653265054736861  1.0000
  C   C11       1.0  0.2605591538629581  0.010902730698297836  0.4393563868700545  1.0000
  C   C12       1.0  0.3337606698894169  0.053317461433761926  0.45254870042556883  1.0000
  C   C13       1.0  0.44302943155420826  0.29557755656506046  0.6115341465336961  1.0000
  C   C14       1.0  0.5162609438900253  0.3379933750409998  0.624787016318639  1.0000
  H   H1        1.0  0.5959497335836547  0.21545499440484472  0.35644871420828905  1.0000
  H   H2        1.0  0.4674608195779473  0.14165572251843808  0.33182403426790597  1.0000
  H   H3        1.0  0.29281061684838  0.35774171380266145  0.5470082141956105  1.0000
  H   H4        1.0  0.1427794781303111  0.058631305382505175  0.45472208635046085  1.0000
  H   H5        1.0  0.2513545378255181  0.9142685533199296  0.40925185733451475  1.0000
  H   H6        1.0  0.3803954597171356  0.9875791607731605  0.43348157804708304  1.0000
  H   H7        1.0  0.4013509026722818  0.31749858938639175  0.6845334655951931  1.0000
  H   H8        1.0  0.5297044122626956  0.3928679533353233  0.7066674437111188  1.0000
  C   C15       1.0  0.9022431923433409  0.9976543513267466  0.5549329164451253  1.0000
  C   C16       1.0  0.9058985077601761  0.006869448191946686  0.4182466034507077  1.0000
  C   C17       1.0  0.9068891077620278  0.894388818042619  0.34925595795556297  1.0000
  C   C18       1.0  0.9059077890067582  0.7716005825392263  0.4185637881357544  1.0000
  C   C19       1.0  0.9023217732146965  0.7603813937629473  0.5551969120610818  1.0000
  C   C20       1.0  0.9003125662246098  0.8740185436602964  0.6225779935243874  1.0000
  C   C21       1.0  0.9115378569213844  0.9039381605250503  0.20497175432219739  1.0000
  O   O1        1.0  0.9476978090326948  0.8164969707628315  0.14950789740552906  1.0000
  C   C22       1.0  0.8751527466442606  0.0126039543183718  0.12361316338232096  1.0000
  C   C23       1.0  0.9073324669902918  0.05576503569056345  0.003198693521643033  1.0000
  C   C24       1.0  0.8729285966773991  0.15732580602537327  0.9249316780015143  1.0000
  C   C25       1.0  0.9065658450891241  0.2016026323510416  0.8023101732745824  1.0000
  N   N3        1.0  0.9336086946667873  0.2371916361079156  0.7037402156267856  1.0000
  C   C26       1.0  0.8057841636817573  0.21567192122104628  0.9660799562378539  1.0000
  C   C27       1.0  0.7729703232211435  0.17233086410474163  0.08476459793571388  1.0000
  C   C28       1.0  0.8071584916969695  0.07107779313807813  0.16302338579984288  1.0000
  H   H9        1.0  0.9088208832494709  0.10167305213331111  0.3653295496310669  1.0000
  H   H10       1.0  0.9072282658817752  0.684718879163903  0.3655446491938356  1.0000
  H   H11       1.0  0.8974949961521866  0.8661104661009081  0.727953392095489  1.0000
  H   H12       1.0  0.901576504180081  0.42858110167724545  0.6077207294576479  1.0000
  H   H13       1.0  0.9594329288701032  0.011216074796529526  0.9708642363545215  1.0000
  H   H14       1.0  0.7787040143065713  0.29419223574067677  0.906252316094628  1.0000
  H   H15       1.0  0.7207416266358381  0.21690248666497824  0.11594820397548578  1.0000
  H   H16       1.0  0.7800137096943668  0.03762287882865678  0.25355702348926656  1.0000
  C   C29       1.0  0.9022965803647868  0.3791464841695631  0.17377772435395555  1.0000
  C   C30       1.0  0.9367503722168231  0.5006126005571809  0.16240164155381698  1.0000
  C   C31       1.0  0.9542276261069298  0.5605106921075358  0.039780813226747196  1.0000
  C   C32       1.0  0.9368216309162994  0.5002053605030079  0.9272950428946354  1.0000
  C   C33       1.0  0.902268405663163  0.3788892597824414  0.9363521390817587  1.0000
  C   C34       1.0  0.8852401707821307  0.318931336043063  0.06015978735217398  1.0000
  S   S1        1.0  0.9989121319063405  0.7149265918045007  0.0266565704045143  1.0000
  C   C35       1.0  0.09144907422352921  0.6407408855502603  0.02784194757631831  1.0000
  O   O2        1.0  0.12084748511797883  0.6161750395034156  0.9203419537096353  1.0000
  C   C36       1.0  0.13285449755411327  0.6074361425032677  0.15074758230411978  1.0000
  C   C37       1.0  0.19949177622504277  0.5305550102198022  0.14993575498514078  1.0000
  C   C38       1.0  0.23864454349951386  0.4978029458940103  0.265302187259953  1.0000
  C   C39       1.0  0.2119574383723879  0.5414151304941459  0.38264634170909395  1.0000
  C   C40       1.0  0.1461275839561313  0.6180991919953269  0.3848265247722806  1.0000
  C   C41       1.0  0.1067506178413149  0.6512360154712002  0.26976292057741524  1.0000
  H   H17       1.0  0.8372446357797988  0.1503225434246338  0.40252970635130153  1.0000
  H   H18       1.0  0.9502511520354657  0.5489007612606662  0.24853474564708744  1.0000
  H   H19       1.0  0.9506408035644308  0.5481469031825561  0.8331376564561488  1.0000
  H   H20       1.0  0.858680497029651  0.2252893159359235  0.06800935592384749  1.0000
  H   H21       1.0  0.8893363892882833  0.332585294075588  0.6124664516655391  1.0000
  H   H22       1.0  0.2211890132483789  0.4950689100331924  0.06028653170587405  1.0000
  H   H23       1.0  0.28970600741460584  0.43839879940328563  0.2636855978554762  1.0000
  H   H24       1.0  0.2423340247654866  0.5159245111469775  0.47185401386587134  1.0000
  H   H25       1.0  0.12559675512064383  0.6521429810953805  0.47581217692366895  1.0000
  H   H26       1.0  0.056259367400776306  0.7115552016574189  0.2745987232425393  1.0000
  Zn  Zn1       1.0  0.8199637074582348  0.38292005800090423  0.5562755304129827  1.0000
  Zn  Zn2       1.0  0.9845940625334472  0.375115423273473  0.5538538110703295  1.0000
  C   C42       1.0  0.9022715026926357  0.3737643037662129  0.7922074549548042  1.0000
  C   C43       1.0  0.9022880652215076  0.38427273085671015  0.31792198808971395  1.0000
  C   C44       1.0  0.9023032422600151  0.616211691350812  0.5499730089906725  1.0000
  C   C45       1.0  0.9022562693139881  0.1418237856109654  0.5601565035639404  1.0000
  O   O3        1.0  0.9647615686506714  0.38302566213330597  0.36537908794284224  1.0000
  O   O4        1.0  0.9647486293913307  0.3690868557230227  0.7429119520503411  1.0000
  O   O5        1.0  0.9647734172322288  0.5648662268346503  0.5473059359419461  1.0000
  O   O6        1.0  0.9647367246371417  0.1872463030079201  0.5609850075270202  1.0000
  O   O7        1.0  0.83982098917428  0.5707891809312124  0.5491443347758769  1.0000
  O   O8        1.0  0.8397962014932617  0.3750113701454857  0.7447502821937619  1.0000
  O   O9        1.0  0.8398091408556291  0.38895013182400245  0.36721585700376624  1.0000
  O   O10       1.0  0.8397842968344709  0.19317076337713024  0.5628218739317468  1.0000
