data_image0
_chemical_formula_structural       NC6NC3H6C6BrH5C6NCOH5Zn2C4O8
_chemical_formula_sum              "N3 C26 H16 Br1 O9 Zn2"
_cell_length_a       14.934028789175542
_cell_length_b       9.276564384272257
_cell_length_c       9.27373355559583
_cell_angle_alpha    86.1252681461469
_cell_angle_beta     89.98656969987877
_cell_angle_gamma    90.54840447220178

_space_group_name_H-M_alt    "P 1"
_space_group_IT_number       1

loop_
  _space_group_symop_operation_xyz
  'x, y, z'

loop_
  _atom_site_type_symbol
  _atom_site_label
  _atom_site_symmetry_multiplicity
  _atom_site_fract_x
  _atom_site_fract_y
  _atom_site_fract_z
  _atom_site_occupancy
  N   N1        1.0  0.8529069578459862  0.5602850727049098  0.40841487471395443  1.0000
  C   C1        1.0  0.7754137827098995  0.5591796811102803  0.4077371000181411  1.0000
  C   C2        1.0  0.6790083347976303  0.5577994936237651  0.4068910246488034  1.0000
  C   C3        1.0  0.631939733109216  0.6652882688586441  0.4726769550287699  1.0000
  C   C4        1.0  0.538420853348231  0.6641800852686701  0.47199858892451174  1.0000
  C   C5        1.0  0.49105838041552297  0.5556379830907892  0.4055680653131801  1.0000
  C   C6        1.0  0.39442764874643477  0.557966877387482  0.4069946935648197  1.0000
  N   N2        1.0  0.3169594623396463  0.5598151521536565  0.40812723122954275  1.0000
  C   C7        1.0  0.5381118104730446  0.4466621182073199  0.3388714461708051  1.0000
  C   C8        1.0  0.48903369075014497  0.3286543040668264  0.26664888890496385  1.0000
  C   C9        1.0  0.632269058897681  0.4489010956115611  0.3402418107034293  1.0000
  H   H1        1.0  0.6675307860969084  0.7499794594376048  0.5245107551634964  1.0000
  H   H2        1.0  0.5029277501375051  0.7482190293402324  0.5234330539724532  1.0000
  H   H3        1.0  0.44657902735165156  0.37677142327554747  0.1780173490012389  1.0000
  H   H4        1.0  0.4459049009244331  0.26667102882865534  0.3468006037019713  1.0000
  H   H5        1.0  0.5359990510134985  0.2522188647175274  0.21986199495988415  1.0000
  H   H6        1.0  0.6692624398385556  0.3659801230725179  0.28949186262370885  1.0000
  C   C10       1.0  0.08223978438209456  0.13657582159259207  0.4086412593855613  1.0000
  C   C11       1.0  0.07073986488295086  0.21867264697108468  0.2769246360349067  1.0000
  C   C12       1.0  0.06757351970407605  0.15228608393542853  0.14643321235442852  1.0000
  C   C13       1.0  0.07588672981444766  0.002857112996899505  0.14518062442496804  1.0000
  C   C14       1.0  0.08580881174190025  0.9190471726945969  0.2749063403158185  1.0000
  C   C15       1.0  0.08763517488910155  0.9835133806947296  0.4079132481982482  1.0000
  Br  Br1       1.0  0.07221332588906798  0.912580778474406  0.9661231754123684  1.0000
  H   H7        1.0  0.05602669408056157  0.4016701685360909  0.6429662063479893  1.0000
  H   H8        1.0  0.06632051956428797  0.3353070271298635  0.274460041854324  1.0000
  H   H9        1.0  0.05950799926112225  0.21743676029619663  0.046048577380514155  1.0000
  H   H10       1.0  0.08995125238092694  0.8027696376550346  0.2717965194534524  1.0000
  H   H11       1.0  0.13707369318371174  0.6879403926361928  0.63234896294824  1.0000
  C   C16       1.0  0.0848572962629865  0.5555012114732465  0.9850542099578071  1.0000
  C   C17       1.0  0.0025056801847196373  0.547307605964569  0.05906380729294992  1.0000
  C   C18       1.0  0.9210428355559683  0.5507996940319086  0.9841619074852986  1.0000
  C   C19       1.0  0.9219376008252534  0.5671729248479068  0.8327996086298844  1.0000
  C   C20       1.0  0.002929099455785571  0.5732160312510342  0.7575887030419253  1.0000
  C   C21       1.0  0.08501765556893615  0.5645879997221177  0.8315003684931344  1.0000
  N   N3        1.0  0.8384463396845835  0.5458254726906071  0.064231925747956  1.0000
  C   C22       1.0  0.7573507414262359  0.4795010810458134  0.01755659359308459  1.0000
  O   O1        1.0  0.7563937202614753  0.40318602607432674  0.9102716494530569  1.0000
  H   H12       1.0  0.29650098116024404  0.6554208252310469  0.08115077785929038  1.0000
  H   H13       1.0  0.8601580234819917  0.5768369481696367  0.7722150809028312  1.0000
  H   H14       1.0  0.22823049669317863  0.6257897252340632  0.5462528591412804  1.0000
  H   H15       1.0  0.8383699240645869  0.5841691618441911  0.16761816549052133  1.0000
  H   H16       1.0  0.6962260387598889  0.49165704446453556  0.07800498061655481  1.0000
  Zn  Zn1       1.0  0.9868224770284854  0.5601456887471525  0.4083401866209804  1.0000
  Zn  Zn2       1.0  0.183043900202858  0.5599428499600552  0.4082137124544354  1.0000
  C   C23       1.0  0.08494875052488376  0.5571255361234431  0.6715088403358911  1.0000
  C   C24       1.0  0.0849197810563709  0.56296482142037  0.14504519725003062  1.0000
  C   C25       1.0  0.08660963098012608  0.8233625274973884  0.4023077676754965  1.0000
  C   C26       1.0  0.0832588226217556  0.29672609837114083  0.41424634828013907  1.0000
  O   O2        1.0  0.15940571892363042  0.5653864095636045  0.19869164324143895  1.0000
  O   O3        1.0  0.15939032558333688  0.5545489056906326  0.6177659894389812  1.0000
  O   O4        1.0  0.16073050401563826  0.769538660376712  0.40038421798167634  1.0000
  O   O5        1.0  0.1580654735794932  0.35039666410259485  0.4160733066717737  1.0000
  O   O6        1.0  0.011800836691117082  0.7696918746753201  0.4004805924392194  1.0000
  O   O7        1.0  0.010460669277454924  0.5547038517352321  0.6178622855623881  1.0000
  O   O8        1.0  0.010476062028891947  0.5655412867540413  0.19878620664803237  1.0000
  O   O9        1.0  0.009135816635857054  0.3505515321386692  0.4161679781409151  1.0000
