data_image0
_chemical_formula_structural       NC6NC2H4C6NH5C7NH4Zn2C4O8
_chemical_formula_sum              "N4 C25 H13 Zn2 O8"
_cell_length_a       14.927258858638513
_cell_length_b       9.274771166103582
_cell_length_c       9.275157849593906
_cell_angle_alpha    86.00874675488272
_cell_angle_beta     89.74087902936087
_cell_angle_gamma    90.59705168739299

_space_group_name_H-M_alt    "P 1"
_space_group_IT_number       1

loop_
  _space_group_symop_operation_xyz
  'x, y, z'

loop_
  _atom_site_type_symbol
  _atom_site_label
  _atom_site_symmetry_multiplicity
  _atom_site_fract_x
  _atom_site_fract_y
  _atom_site_fract_z
  _atom_site_occupancy
  N   N1        1.0  0.8581652158123619  0.5633171049323256  0.40751299700368376  1.0000
  C   C1        1.0  0.7806387244308303  0.563317076517541  0.40751300764121523  1.0000
  C   C2        1.0  0.6842062177694795  0.5633171911641672  0.40751295758625805  1.0000
  C   C3        1.0  0.6373482835985205  0.5384003115244365  0.2809099644925324  1.0000
  C   C4        1.0  0.5436369727877213  0.5384003358812595  0.28090983102923617  1.0000
  C   C5        1.0  0.4963901525758667  0.5633170137493744  0.40751297653431623  1.0000
  C   C6        1.0  0.39995757892301603  0.5633171283989087  0.4075129264734318  1.0000
  N   N2        1.0  0.3224310875414842  0.5633170999841243  0.4075129371109635  1.0000
  C   C7        1.0  0.5432480197553254  0.5882338933920135  0.5341159696221143  1.0000
  C   C8        1.0  0.6369593305661252  0.5882338690351901  0.5341161030854109  1.0000
  H   H1        1.0  0.6731957663869876  0.5190135730947665  0.18240556972676436  1.0000
  H   H2        1.0  0.5080921121697326  0.519013770633993  0.18240556443192957  1.0000
  H   H3        1.0  0.5074006035909316  0.6076206225426156  0.6326204724580964  1.0000
  H   H4        1.0  0.6725041915104818  0.6076205326952797  0.6326204794993195  1.0000
  C   C9        1.0  0.08754996418113017  0.13972810943091285  0.40829847605128466  1.0000
  C   C10       1.0  0.06728953600875046  0.22179521665053697  0.2794262326949877  1.0000
  C   C11       1.0  0.0553954700707453  0.15549630862970767  0.14973635010474085  1.0000
  C   C12       1.0  0.06381137696719531  0.005743769972735178  0.1479793549236357  1.0000
  C   C13       1.0  0.08242010729392478  0.9223401781686887  0.275081270562533  1.0000
  C   C14       1.0  0.09305483437324541  0.9868951324348706  0.40673999317459586  1.0000
  N   N3        1.0  0.03568933042461486  0.24064926740157855  0.019447726054373952  1.0000
  H   H5        1.0  0.18750296550396825  0.22242710805335486  0.7236884990611085  1.0000
  H   H6        1.0  0.055084090208459974  0.953295165904911  0.04819607468008158  1.0000
  H   H7        1.0  0.15674038256827813  0.6918962005451279  0.6213168785866334  1.0000
  H   H8        1.0  0.029517233151271645  0.35272271795242444  0.019400919740292004  1.0000
  H   H9        1.0  0.027039870501991647  0.1922407050216872  0.92203441745154  1.0000
  C   C15       1.0  0.09146459491688685  0.5592342976338538  0.984328950034826  1.0000
  C   C16       1.0  0.1689841586395915  0.6062582820988764  0.05393846710169759  1.0000
  C   C17       1.0  0.24198201977774672  0.6646248260373668  0.9739529205401505  1.0000
  C   C18       1.0  0.23831291756365924  0.676895292936128  0.8232714000388853  1.0000
  C   C19       1.0  0.16262756227203856  0.628703249835068  0.7523224898179844  1.0000
  C   C20       1.0  0.0891402147725538  0.5673888688949538  0.8307095190112583  1.0000
  C   C21       1.0  0.32039266203022354  0.7136576246277169  0.04686633410774223  1.0000
  N   N4        1.0  0.38341473681765037  0.753066773400765  0.10547642747026136  1.0000
  H   H10       1.0  0.8731810336489495  0.5105989650215854  0.09225604965535394  1.0000
  H   H11       1.0  0.2943932880433695  0.7225224433465662  0.7603646598906333  1.0000
  H   H12       1.0  0.16247865995143126  0.6362869058684493  0.6352440986007015  1.0000
  H   H13       1.0  0.9430705667905753  0.5285869739693934  0.5533744115649117  1.0000
  Zn  Zn1       1.0  0.9921422776941937  0.5633133185584209  0.40752131385796364  1.0000
  Zn  Zn2       1.0  0.18845392730200106  0.5633091850427263  0.4075164635177583  1.0000
  C   C22       1.0  0.08954021250810001  0.5601010705679521  0.6707360149194401  1.0000
  C   C23       1.0  0.09105814764321113  0.5665232543766989  0.14430190049962577  1.0000
  C   C24       1.0  0.09202544583776501  0.8267071720088935  0.4012918678272254  1.0000
  C   C25       1.0  0.08857283585388537  0.2999154206387724  0.4137461276131449  1.0000
  O   O1        1.0  0.16542094727311385  0.5689616332200138  0.1979884549447762  1.0000
  O   O2        1.0  0.16417340665645141  0.5576584623005745  0.6170453663377893  1.0000
  O   O3        1.0  0.16617925559950808  0.7729462753668546  0.39946730846435785  1.0000
  O   O4        1.0  0.16341503170598415  0.3536738294328021  0.41556640474799356  1.0000
  O   O5        1.0  0.017181106298709965  0.7729486741712535  0.39947137262180066  1.0000
  O   O6        1.0  0.015175268823813598  0.557662593404866  0.6170493504680001  1.0000
  O   O7        1.0  0.0164228139317193  0.5689656973648971  0.19799070654177542  1.0000
  O   O8        1.0  0.014416897997162621  0.35367788430152514  0.4155687644092789  1.0000
