data_image0
_chemical_formula_structural       NC5NC4H6C6H6C12H10Zn2C4O8
_chemical_formula_sum              "N2 C31 H22 Zn2 O8"
_cell_length_a       13.854160002989762
_cell_length_b       10.681118228259553
_cell_length_c       14.388129018870243
_cell_angle_alpha    83.27315070133545
_cell_angle_beta     90.8946737700517
_cell_angle_gamma    89.99830476723527

_space_group_name_H-M_alt    "P 1"
_space_group_IT_number       1

loop_
  _space_group_symop_operation_xyz
  'x, y, z'

loop_
  _atom_site_type_symbol
  _atom_site_label
  _atom_site_symmetry_multiplicity
  _atom_site_fract_x
  _atom_site_fract_y
  _atom_site_fract_z
  _atom_site_occupancy
  N   N1        1.0  0.892180583919256  0.4260691678982648  0.9704299287092233  1.0000
  C   C1        1.0  0.8192273807114708  0.45002381088387683  0.9321980784026538  1.0000
  C   C2        1.0  0.7284725539354927  0.47982405951297435  0.8846361927334274  1.0000
  C   C3        1.0  0.6416550605949873  0.4517177033927809  0.9310761561795137  1.0000
  C   C4        1.0  0.5533301413206334  0.4798240727650163  0.8846361777294911  1.0000
  C   C5        1.0  0.46411924031207136  0.45002367976220164  0.9321981377256716  1.0000
  N   N2        1.0  0.39240701332176786  0.42606911276520154  0.9704299286524629  1.0000
  C   C6        1.0  0.5518555372965831  0.5365626791800174  0.7917685410028508  1.0000
  C   C7        1.0  0.6386391694810013  0.5665396591938945  0.7452616232646024  1.0000
  C   C8        1.0  0.6370112711215096  0.6238889607644296  0.644954945944908  1.0000
  C   C9        1.0  0.7269326253842974  0.5365626811826093  0.7917684825483415  1.0000
  H   H1        1.0  0.6428216839056508  0.40770647934910126  0.002954000646062104  1.0000
  H   H2        1.0  0.48339778412998263  0.5574242864642831  0.7557360659202541  1.0000
  H   H3        1.0  0.701614425460762  0.683905525623676  0.6295539685242986  1.0000
  H   H4        1.0  0.5719059484854844  0.6839055249799953  0.6295540106662755  1.0000
  H   H5        1.0  0.636261725906318  0.5477836103012608  0.5986232184596985  1.0000
  H   H6        1.0  0.7942207423127385  0.5574243871207192  0.7557360106084647  1.0000
  C   C10       1.0  0.142298499456051  0.05831891399062883  0.9704339562264701  1.0000
  C   C11       1.0  0.1858735435432851  0.9798069888345016  0.04456142311396962  1.0000
  C   C12       1.0  0.1858735280940247  0.8489247529607038  0.04456138043932467  1.0000
  C   C13       1.0  0.14229848390479288  0.7938093157708737  0.9704339965761408  1.0000
  C   C14       1.0  0.09875950966516518  0.8723065367565384  0.8963677867061852  1.0000
  C   C15       1.0  0.09875952498838056  0.003198792811848421  0.8963678245894229  1.0000
  H   H7        1.0  0.09823208077273504  0.3688587356371815  0.8954714027885139  1.0000
  H   H8        1.0  0.22002977566873386  0.019448272960990384  0.1026660011923655  1.0000
  H   H9        1.0  0.2200296567286576  0.7909442452546636  0.10266598470452948  1.0000
  H   H10       1.0  0.0645988238690167  0.8327112049300941  0.8382556219647608  1.0000
  H   H11       1.0  0.06459879844502492  0.06113564437340367  0.8382556143750304  1.0000
  H   H12       1.0  0.09823243204967853  0.5069293983678811  0.8954711502949999  1.0000
  C   C16       1.0  0.1378526787892893  0.44084983457604054  0.6963343220495969  1.0000
  C   C17       1.0  0.10209767177678873  0.5596515680565926  0.7118731413218231  1.0000
  C   C18       1.0  0.0756191200451568  0.64795872288568  0.6364871619854044  1.0000
  C   C19       1.0  0.08440315743679339  0.6190435910234922  0.5448704530463713  1.0000
  C   C20       1.0  0.11988907570854668  0.5008408637711501  0.5275097118248557  1.0000
  C   C21       1.0  0.1291399770866281  0.469955370055843  0.4300241873762078  1.0000
  C   C22       1.0  0.1636971073592037  0.5601843160863098  0.3594178133306618  1.0000
  C   C23       1.0  0.1724448896899617  0.5311284908506946  0.2676881476452502  1.0000
  C   C24       1.0  0.1467442613626981  0.4112783793692285  0.24453365572659935  1.0000
  C   C25       1.0  0.11211694628220559  0.32100417250294644  0.3150491271034681  1.0000
  C   C26       1.0  0.1034439702344725  0.3500299733499339  0.4067894047614422  1.0000
  C   C27       1.0  0.14650135764771055  0.41225260259839186  0.6038545347113758  1.0000
  H   H13       1.0  0.2211295580789696  0.16453481386558333  0.8141891956943197  1.0000
  H   H14       1.0  0.09456079500250644  0.58440696140218  0.7822635498265239  1.0000
  H   H15       1.0  0.0479138161411645  0.7390967859547442  0.6491321137369979  1.0000
  H   H16       1.0  0.062230371261744  0.6885167793363205  0.4876184698349767  1.0000
  H   H17       1.0  0.18521367800663974  0.6528608102769495  0.3753712670366829  1.0000
  H   H18       1.0  0.19959623697023327  0.6025985258873681  0.21499398094064806  1.0000
  H   H19       1.0  0.19707131120630805  0.4512940697862347  0.011177320353326744  1.0000
  H   H20       1.0  0.09144363088233498  0.22789843241457008  0.29934828667477476  1.0000
  H   H21       1.0  0.07537431719762376  0.27906552802299456  0.4593481598400774  1.0000
  H   H22       1.0  0.17520066422369004  0.321634714314321  0.5910492864995309  1.0000
  Zn  Zn1       1.0  0.03653521903382617  0.42606550810568705  0.9704353246859865  1.0000
  Zn  Zn2       1.0  0.24805250371864707  0.4260621112192452  0.9704321984367629  1.0000
  C   C28       1.0  0.14506143276877642  0.4118790816319984  0.14091222213576793  1.0000
  C   C29       1.0  0.13952860123174915  0.4402501128174237  0.7999553925663472  1.0000
  C   C30       1.0  0.14223317947453126  0.6549865907309623  0.9667144594158901  1.0000
  C   C31       1.0  0.142356783157135  0.19714109645200234  0.974153205050796  1.0000
  O   O1        1.0  0.2203607633196787  0.44004208820166696  0.8347303840263538  1.0000
  O   O2        1.0  0.224765991221737  0.41208359784760207  0.10613458923211916  1.0000
  O   O3        1.0  0.22248107458650046  0.6083959336219882  0.9654686633738092  1.0000
  O   O4        1.0  0.22264560664324873  0.24372976516213504  0.9753962399000515  1.0000
  O   O5        1.0  0.06194204392867662  0.6083978541655846  0.9654712832188554  1.0000
  O   O6        1.0  0.06422695975222537  0.4120870256604435  0.10613715930875178  1.0000
  O   O7        1.0  0.05982171371234087  0.44004553291042053  0.8347318318841255  1.0000
  O   O8        1.0  0.062106558167029445  0.24373319713882236  0.9753977577385927  1.0000
