data_image0
_chemical_formula_structural       NC8NH4C7NH5C7F3H5Zn2C4O8
_chemical_formula_sum              "N3 C26 H14 F3 Zn2 O8"
_cell_length_a       11.048855714531884
_cell_length_b       9.275154477615127
_cell_length_c       9.272721663655245
_cell_angle_alpha    86.10781498077147
_cell_angle_beta     90.51618364395259
_cell_angle_gamma    89.43371274831733

_space_group_name_H-M_alt    "P 1"
_space_group_IT_number       1

loop_
  _space_group_symop_operation_xyz
  'x, y, z'

loop_
  _atom_site_type_symbol
  _atom_site_label
  _atom_site_symmetry_multiplicity
  _atom_site_fract_x
  _atom_site_fract_y
  _atom_site_fract_z
  _atom_site_occupancy
  N   N1        1.0  0.11468304046583525  0.5691383898819673  0.41567432513925  1.0000
  C   C1        1.0  0.06001173441568408  0.5107317606642217  0.330421943328042  1.0000
  C   C2        1.0  0.9917987870867238  0.4378569372441456  0.22405103441176433  1.0000
  C   C3        1.0  0.8640820340399175  0.43785674726745144  0.224051135420233  1.0000
  C   C4        1.0  0.8011143241054433  0.3658167335673017  0.11889903817876446  1.0000
  C   C5        1.0  0.8643442034935321  0.294346556392334  0.01457861360988822  1.0000
  C   C6        1.0  0.9907504169937075  0.29434644641377816  0.014578635846297814  1.0000
  C   C7        1.0  0.0543718619000666  0.36581683183158087  0.1188990108417771  1.0000
  C   C8        1.0  0.7962683126193913  0.5107318355107913  0.3304219304874474  1.0000
  N   N2        1.0  0.7419169264686765  0.5691384327044173  0.4156743541116683  1.0000
  H   H1        1.0  0.7030496074276501  0.36491462178926204  0.11758163901973373  1.0000
  H   H2        1.0  0.815294522743983  0.23891262146972372  0.9336658796269307  1.0000
  H   H3        1.0  0.03949656306204541  0.23891273086857057  0.933665879452036  1.0000
  H   H4        1.0  0.15243162166372204  0.36491457427193885  0.1175819140569514  1.0000
  C   C9        1.0  0.43179556643831285  0.145739882949256  0.41400569262544384  1.0000
  C   C10       1.0  0.39761870757838624  0.22821683172486007  0.2868658803214756  1.0000
  C   C11       1.0  0.35364801086207415  0.16151346378737674  0.16646085294754864  1.0000
  C   C12       1.0  0.34313441869472183  0.01142230081563911  0.17177760759144123  1.0000
  C   C13       1.0  0.3784112320794082  0.9277216724104248  0.29601936920014293  1.0000
  C   C14       1.0  0.42481620823811483  0.9925259000993945  0.4173554507160057  1.0000
  C   C15       1.0  0.31784944104840696  0.24756376228564614  0.03778867431568921  1.0000
  N   N3        1.0  0.28907730028096945  0.3167324782561989  0.9343692017778656  1.0000
  H   H5        1.0  0.4579234189595045  0.22436567524646975  0.7679609755143053  1.0000
  H   H6        1.0  0.40252931063029307  0.34515260361998146  0.28258732700201117  1.0000
  H   H7        1.0  0.3086952801603929  0.9587846746337336  0.07923878199157097  1.0000
  H   H8        1.0  0.37205490410897735  0.8112533754186213  0.29589246627963733  1.0000
  H   H9        1.0  0.4475360094252233  0.695065382705431  0.6545155586081222  1.0000
  C   C16       1.0  0.4251228811358838  0.5667943526450945  0.9922280737777273  1.0000
  C   C17       1.0  0.4776055308816903  0.4488624964298395  0.07448389904196073  1.0000
  C   C18       1.0  0.5406254386270035  0.33950684317985513  0.008146307166678749  1.0000
  C   C19       1.0  0.5474704600399869  0.34614623227659225  0.8570227526952068  1.0000
  C   C20       1.0  0.49429526178817573  0.4610762123710801  0.7737867506097222  1.0000
  C   C21       1.0  0.4314889148341586  0.5714714284576778  0.8391330036142919  1.0000
  C   C22       1.0  0.5934730252283815  0.212039579486931  0.09798942912758402  1.0000
  F   F1        1.0  0.6338868794090176  0.2539440497159806  0.23038814613552994  1.0000
  F   F2        1.0  0.6904393858399932  0.15240218778790426  0.02863360355618649  1.0000
  F   F3        1.0  0.505472517253149  0.10825782036014832  0.12061459369210636  1.0000
  H   H10       1.0  0.3455749448125676  0.9101303745009308  0.06980563150696262  1.0000
  H   H11       1.0  0.4716044832278075  0.4437401779979799  0.1913092694564875  1.0000
  H   H12       1.0  0.5929029627746754  0.26144924017415305  0.8027798500672105  1.0000
  H   H13       1.0  0.4994777279934242  0.4615373454805165  0.6571339575113923  1.0000
  H   H14       1.0  0.2122912194815401  0.8146552323087995  0.718804133456691  1.0000
  Zn  Zn1       1.0  0.29568929978742164  0.5691345802081766  0.41568264242904596  1.0000
  Zn  Zn2       1.0  0.5609108804524302  0.5691304818295253  0.41567779131903126  1.0000
  C   C23       1.0  0.4303302154209481  0.5648434875612833  0.6790271335095767  1.0000
  C   C24       1.0  0.42627284709994606  0.5734233944206373  0.15233344891415032  1.0000
  C   C25       1.0  0.42608602697534537  0.8324335646095742  0.41097599440897015  1.0000
  C   C26       1.0  0.43051695989944194  0.3058315855390592  0.4203846580429669  1.0000
  O   O1        1.0  0.5273090456755842  0.5756403159369583  0.2060644095370776  1.0000
  O   O2        1.0  0.5305910656051795  0.5626223654829641  0.6252920716042378  1.0000
  O   O3        1.0  0.5271624842179488  0.7787047451392715  0.40883888622946585  1.0000
  O   O4        1.0  0.5307375356629311  0.35955794599902724  0.4225174868344696  1.0000
  O   O5        1.0  0.32586255406974196  0.7787071160416006  0.40884294690768397  1.0000
  O   O6        1.0  0.3292911205959011  0.5626264682215067  0.6252960622483223  1.0000
  O   O7        1.0  0.32600908812906626  0.5756443588576015  0.20606666628319736  1.0000
  O   O8        1.0  0.3294375790091184  0.3595619792042206  0.42251985165204575  1.0000
