data_image0
_chemical_formula_structural       NC10NC5H10C7OC3NC3H11C7OC4NC2H9Zn2C4O8
_chemical_formula_sum              "N4 C45 H30 O10 Zn2"
_cell_length_a       19.4436361288709
_cell_length_b       10.298746005989749
_cell_length_c       10.299375074045738
_cell_angle_alpha    85.54279281073399
_cell_angle_beta     89.69773134605877
_cell_angle_gamma    89.42734808848357

_space_group_name_H-M_alt    "P 1"
_space_group_IT_number       1

loop_
  _space_group_symop_operation_xyz
  'x, y, z'

loop_
  _atom_site_type_symbol
  _atom_site_label
  _atom_site_symmetry_multiplicity
  _atom_site_fract_x
  _atom_site_fract_y
  _atom_site_fract_z
  _atom_site_occupancy
  N   N1        1.0  0.6478528341959084  0.40997510935157777  0.5621462338635734  1.0000
  C   C1        1.0  0.5890176954138124  0.4198697624762079  0.5765317843279341  1.0000
  C   C2        1.0  0.5156894048462578  0.43220969135613296  0.5945260691806538  1.0000
  C   C3        1.0  0.4735031691474016  0.4002631568495968  0.49984486283443363  1.0000
  C   C4        1.0  0.3975993401939916  0.41069930643504066  0.5051741180111583  1.0000
  C   C5        1.0  0.3578576257004042  0.38588951668516486  0.6122496622845122  1.0000
  C   C6        1.0  0.2817374500397486  0.3898137008768271  0.5992899872527918  1.0000
  C   C7        1.0  0.241178873084276  0.4474272087366791  0.6930703467438897  1.0000
  C   C8        1.0  0.1695158151437088  0.45107115368652884  0.6825262447738354  1.0000
  C   C9        1.0  0.1374165449045544  0.39670538716392567  0.578488289351416  1.0000
  C   C10       1.0  0.0636242479358328  0.4004106671801943  0.5677889030914541  1.0000
  N   N2        1.0  0.004300246222632802  0.403389517801035  0.5591873058996616  1.0000
  C   C11       1.0  0.1772501714362399  0.33838451744571096  0.4850911216640437  1.0000
  C   C12       1.0  0.2489296550782997  0.33468648502817033  0.4953834290242992  1.0000
  C   C13       1.0  0.38598653680731293  0.3453521360600631  0.7433472101131586  1.0000
  C   C14       1.0  0.4446534318413661  0.38845103644349765  0.7905958246493084  1.0000
  C   C15       1.0  0.4888691812498965  0.486358705941491  0.7162333188360921  1.0000
  H   H1        1.0  0.49560023172865575  0.37119426551035756  0.4095310322806276  1.0000
  H   H2        1.0  0.37290318867411004  0.43324791329716056  0.41201314650440884  1.0000
  H   H3        1.0  0.2650524772154897  0.49067631908052833  0.7739264641340919  1.0000
  H   H4        1.0  0.13917435556586052  0.4963485898038869  0.7554546833202123  1.0000
  H   H5        1.0  0.152904699169067  0.29533089307034316  0.4045695209290878  1.0000
  H   H6        1.0  0.2786053117916356  0.2871650900102487  0.4231511607563776  1.0000
  H   H7        1.0  0.35501551682383936  0.2810939592327988  0.807591647427327  1.0000
  H   H8        1.0  0.4598001164484887  0.35432626154386915  0.8885321009517531  1.0000
  H   H9        1.0  0.4587677112917726  0.5770943725041839  0.6909881337336923  1.0000
  H   H10       1.0  0.5321560644300081  0.5119114374763569  0.7793236590327699  1.0000
  C   C16       1.0  0.8260469634011302  0.025280788849654675  0.5606498691948254  1.0000
  C   C17       1.0  0.858228905042554  0.03323999659056986  0.4378737243851064  1.0000
  C   C18       1.0  0.8737784479145554  0.9201548153502344  0.37510914326439027  1.0000
  C   C19       1.0  0.8582294237371818  0.7980034056421712  0.4378245810806534  1.0000
  C   C20       1.0  0.8261126827003139  0.7880737492411629  0.5606948800272258  1.0000
  C   C21       1.0  0.8100596962780356  0.9022778251992135  0.621174769798357  1.0000
  C   C22       1.0  0.9083468443065069  0.9283571498342041  0.24600168171443149  1.0000
  O   O1        1.0  0.9503427814361134  0.8396130719885008  0.22043984241010528  1.0000
  C   C23       1.0  0.8952749572134028  0.0371752410847943  0.14590062092546122  1.0000
  C   C24       1.0  0.8301492724533611  0.09777527076153027  0.1343333151118944  1.0000
  C   C25       1.0  0.8181029429273783  0.19970611564486518  0.03852280574474555  1.0000
  N   N3        1.0  0.7518762027840561  0.2611683317977471  0.027868050917275518  1.0000
  C   C26       1.0  0.8712249222470123  0.2406442299871721  0.9529443889806153  1.0000
  C   C27       1.0  0.9357229089879089  0.1798917539464997  0.9626607623829285  1.0000
  C   C28       1.0  0.9477157586445556  0.0783864893545072  0.05816749605872596  1.0000
  H   H11       1.0  0.7661926829873175  0.21751902459394423  0.7934912537113299  1.0000
  H   H12       1.0  0.8719093006710499  0.12752198769400347  0.39153658925930257  1.0000
  H   H13       1.0  0.8706367216169297  0.7106011141251629  0.39002187510894737  1.0000
  H   H14       1.0  0.7852566199298776  0.8953905730345922  0.7158148108212354  1.0000
  H   H15       1.0  0.7656868627146536  0.561988757552755  0.793052464424357  1.0000
  H   H16       1.0  0.7884938899923056  0.06511594911289921  0.1986441695239909  1.0000
  H   H17       1.0  0.7119102938297013  0.2314282343872882  0.09115338054922151  1.0000
  H   H18       1.0  0.74233905050317  0.33698755480483555  0.9567060979327221  1.0000
  H   H19       1.0  0.8625617396578432  0.3191847596974778  0.8785263135883472  1.0000
  H   H20       1.0  0.9765357253952693  0.21153194115460572  0.8960245029710485  1.0000
  H   H21       1.0  0.9981586663534833  0.032810059753488836  0.06427657152920796  1.0000
  C   C29       1.0  0.8261032199969833  0.40681919388137033  0.17928543506362304  1.0000
  C   C30       1.0  0.8790529747271321  0.4989597333453358  0.1704079567104975  1.0000
  C   C31       1.0  0.9052251275440126  0.5465230596062991  0.0486774703677495  1.0000
  C   C32       1.0  0.8789415958666082  0.4987240353432105  0.9351835508571757  1.0000
  C   C33       1.0  0.8260564134732327  0.406535350201333  0.942059362664964  1.0000
  C   C34       1.0  0.7998199406391173  0.36136997334418625  0.0645868001667016  1.0000
  C   C35       1.0  0.9616301906124546  0.6428080445815585  0.03923751603914516  1.0000
  O   O2        1.0  0.005582491491544326  0.6373105834832933  0.9492374507403922  1.0000
  C   C36       1.0  0.9681638981249745  0.7453415222216273  0.13181591152044247  1.0000
  C   C37       1.0  0.03357278468464342  0.7906980162055982  0.16303228960497607  1.0000
  C   C38       1.0  0.040246073912117104  0.8885948383659014  0.24919948358890578  1.0000
  C   C39       1.0  0.10741604602886934  0.9337094492410785  0.2814323393214527  1.0000
  N   N4        1.0  0.16141313582918748  0.9699708962494618  0.30734016230438455  1.0000
  C   C40       1.0  0.9815169431189197  0.9425354456417377  0.30388358400497056  1.0000
  C   C41       1.0  0.9095273004812956  0.8015622479420321  0.18627398565530617  1.0000
  H   H22       1.0  0.7269040047060843  0.23146207992170936  0.4034670737071828  1.0000
  H   H23       1.0  0.9005285894305761  0.5327671664038951  0.2584149804232647  1.0000
  H   H24       1.0  0.8994171523022991  0.5345846649126594  0.8412705869671546  1.0000
  H   H25       1.0  0.7589997771835885  0.2903356763763616  0.07062686657175998  1.0000
  H   H26       1.0  0.8061368625671432  0.370313528931046  0.6173024159703533  1.0000
  H   H27       1.0  0.07929353562371322  0.7491297276293267  0.12126966437949017  1.0000
  H   H28       1.0  0.9861116235645613  0.01833497825921171  0.3705291697414892  1.0000
  H   H29       1.0  0.8709593503691898  0.9417272728316661  0.3137754893116411  1.0000
  H   H30       1.0  0.8584380513344604  0.7711099521277806  0.16139288822231435  1.0000
  Zn  Zn1       1.0  0.7507158581259518  0.4080711754251652  0.5612998634590589  1.0000
  Zn  Zn2       1.0  0.9014372122384678  0.40528283916383634  0.5600443573628429  1.0000
  C   C42       1.0  0.8260632978067057  0.4014148892377445  0.7978784365271363  1.0000
  C   C43       1.0  0.8260914185636059  0.4119407336146985  0.32346589815388627  1.0000
  C   C44       1.0  0.8260970454642419  0.6438916172160971  0.5555109964321467  1.0000
  C   C45       1.0  0.8260576193366982  0.16946244612630276  0.5658334078270891  1.0000
  O   O3        1.0  0.8832854258012657  0.41259574383046554  0.3713777203169284  1.0000
  O   O4        1.0  0.8832633108242076  0.39864261665036027  0.7490133403659541  1.0000
  O   O5        1.0  0.8832897913456642  0.5944456547915559  0.5532999242020894  1.0000
  O   O6        1.0  0.8832588938555938  0.21679271596799593  0.5670910395304886  1.0000
  O   O7        1.0  0.7688941250750252  0.5965612995739449  0.5542531817130245  1.0000
  O   O8        1.0  0.7688676446891396  0.4007598218957318  0.749966528720287  1.0000
  O   O9        1.0  0.7688897598038137  0.41471290439627434  0.3723293471936966  1.0000
  O   O10       1.0  0.7688632278485565  0.21890986720801792  0.5680427637791732  1.0000
