data_image0
_chemical_formula_structural       NC8NC6H8C8H6C6SCNH5Zn2C4O8
_chemical_formula_sum              "N3 C33 H19 S1 Zn2 O8"
_cell_length_a       17.457602349358154
_cell_length_b       9.27514070457351
_cell_length_c       10.302218930750287
_cell_angle_alpha    85.68853581932115
_cell_angle_beta     92.89432631333469
_cell_angle_gamma    92.27341969939751

_space_group_name_H-M_alt    "P 1"
_space_group_IT_number       1

loop_
  _space_group_symop_operation_xyz
  'x, y, z'

loop_
  _atom_site_type_symbol
  _atom_site_label
  _atom_site_symmetry_multiplicity
  _atom_site_fract_x
  _atom_site_fract_y
  _atom_site_fract_z
  _atom_site_occupancy
  N   N1        1.0  0.7310501382459017  0.6137602351439415  0.6310280840413569  1.0000
  C   C1        1.0  0.6696894714880125  0.5627571684520838  0.6202818317224019  1.0000
  C   C2        1.0  0.59335425572258  0.49931569829289413  0.6069230501487302  1.0000
  C   C3        1.0  0.5350851265665609  0.543906978184904  0.6819197905086926  1.0000
  C   C4        1.0  0.4602010577068014  0.4828179611289012  0.6691814387989994  1.0000
  C   C5        1.0  0.3983555705079921  0.5298997446204672  0.7486054608252818  1.0000
  C   C6        1.0  0.3239114000994724  0.5504203890335195  0.6929082442400494  1.0000
  C   C7        1.0  0.265641163868689  0.5948073815729176  0.7680123809360431  1.0000
  C   C8        1.0  0.1897621283393998  0.6160012683579632  0.710101966903899  1.0000
  N   N2        1.0  0.12876826130867017  0.6330340679699029  0.6635421265637691  1.0000
  C   C9        1.0  0.28132451664578584  0.6189436777019821  0.8993228388752301  1.0000
  C   C10       1.0  0.3549864333640571  0.5988549786360362  0.9554086907072062  1.0000
  C   C11       1.0  0.41324625082886457  0.5546678777013514  0.8807626914013756  1.0000
  C   C12       1.0  0.4448703551400072  0.37638556151566327  0.5800117951335106  1.0000
  C   C13       1.0  0.5031295444528672  0.33210371745022704  0.5054157729950879  1.0000
  C   C14       1.0  0.5772296372856999  0.39331744592259565  0.518704273425342  1.0000
  H   H1        1.0  0.5479012854111244  0.6274069910563899  0.7487528950321516  1.0000
  H   H2        1.0  0.3114558384823241  0.5338116839872908  0.5908638774091703  1.0000
  H   H3        1.0  0.2366633209331918  0.6532322757567046  0.9582345634784385  1.0000
  H   H4        1.0  0.3669377366515382  0.6171936962445101  0.05708439277679166  1.0000
  H   H5        1.0  0.469648822545451  0.5380100052068393  0.9268151368971601  1.0000
  H   H6        1.0  0.3881065644537943  0.32603739068540327  0.5692311415158167  1.0000
  H   H7        1.0  0.49083379693747725  0.24984385914465768  0.43738785529121116  1.0000
  H   H8        1.0  0.6218856556317397  0.35806286790213626  0.4603010381945325  1.0000
  C   C15       1.0  0.9275814455837817  0.19984370402128307  0.646186819480112  1.0000
  C   C16       1.0  0.938517806555812  0.28383068282987467  0.528645589276632  1.0000
  C   C17       1.0  0.9561475765158045  0.2193849523611777  0.41630495574146525  1.0000
  C   C18       1.0  0.9632628299843216  0.06979953341474299  0.4193548836189213  1.0000
  C   C19       1.0  0.9513432069794382  0.9841843373414219  0.5346878566052511  1.0000
  C   C20       1.0  0.9322442095807545  0.04693982183295487  0.6483952209688097  1.0000
  C   C21       1.0  0.981938937032504  0.003654076168068352  0.30347068599101545  1.0000
  C   C22       1.0  0.9975761497636184  0.9482585260898511  0.20645086720193206  1.0000
  H   H9        1.0  0.9401929731795932  0.27691947615411694  0.9662387350530646  1.0000
  H   H10       1.0  0.9352171387544135  0.4004961103668541  0.5243989666025509  1.0000
  H   H11       1.0  0.9649813153078018  0.2865654234111348  0.32727073316328226  1.0000
  H   H12       1.0  0.9552117811169945  0.86776460102992  0.5348437312565133  1.0000
  H   H13       1.0  0.9377900284035379  0.7486548905305799  0.8637919800103183  1.0000
  H   H14       1.0  0.011302266315896366  0.8996311685356798  0.12128783483319981  1.0000
  C   C23       1.0  0.9298416560591795  0.6234558519736557  0.2660101636470262  1.0000
  C   C24       1.0  0.0017506956192936394  0.5597539464511965  0.275522564591008  1.0000
  C   C25       1.0  0.03749593949717658  0.52760081464002  0.16327470866955562  1.0000
  C   C26       1.0  0.0019368335195830688  0.5595843802087159  0.040383149485720304  1.0000
  C   C27       1.0  0.9299840043151116  0.6233276592742434  0.02857184019671588  1.0000
  C   C28       1.0  0.8943182007129101  0.6548600141900858  0.14198431603387626  1.0000
  S   S1        1.0  0.12942318664426444  0.4468520679603303  0.17686809450417473  1.0000
  C   C29       1.0  0.0883201027434084  0.2696533889574151  0.1853926446730294  1.0000
  N   N3        1.0  0.06135038353447421  0.15349023632012915  0.19097932044936322  1.0000
  H   H15       1.0  0.9024858632500732  0.647767193372816  0.5897211373662468  1.0000
  H   H16       1.0  0.030245104232211606  0.5345997888585199  0.369866615313442  1.0000
  H   H17       1.0  0.03055882579567858  0.534313927532545  0.9544701455770243  1.0000
  H   H18       1.0  0.8388572152688802  0.70396953563945  0.1338010453069678  1.0000
  H   H19       1.0  0.7943979270665357  0.7436178720101025  0.7990847395847379  1.0000
  Zn  Zn1       1.0  0.8458229775185422  0.6193183777620395  0.6404184210244978  1.0000
  Zn  Zn2       1.0  0.013995344677324219  0.6274640979486517  0.6541623888233468  1.0000
  C   C30       1.0  0.9299237671449643  0.6176058596723868  0.8844162393578343  1.0000
  C   C31       1.0  0.929896401529084  0.6291785248415138  0.41016485275511577  1.0000
  C   C32       1.0  0.931357947223261  0.8868213017804416  0.6428034613492855  1.0000
  C   C33       1.0  0.928462154539641  0.35996134704858945  0.6517776907788133  1.0000
  O   O1        1.0  0.9937352768716223  0.6341840720413312  0.46376023103715996  1.0000
  O   O2        1.0  0.993723821173134  0.6187816375845089  0.841251838025003  1.0000
  O   O3        1.0  0.99488107964472  0.8361764698821432  0.6461477439303596  1.0000
  O   O4        1.0  0.9925779610528188  0.4167892472983275  0.6588642231166371  1.0000
  O   O5        1.0  0.8672403037540803  0.8299932256342005  0.6357165820342405  1.0000
  O   O6        1.0  0.8660830548046727  0.6126001262432723  0.8308206114167677  1.0000
  O   O7        1.0  0.8660945099861096  0.6280025107030591  0.4533274432619693  1.0000
  O   O8        1.0  0.8649371941255556  0.41060767562726136  0.6484315326596461  1.0000
