data_image0
_chemical_formula_structural       NC9NC5H8C7H8C6ClH5Zn2C4O8
_chemical_formula_sum              "N2 C31 H21 Cl1 Zn2 O8"
_cell_length_a       17.807436237873137
_cell_length_b       9.274341958901593
_cell_length_c       10.302974078461048
_cell_angle_alpha    85.52847860728707
_cell_angle_beta     89.39214410348853
_cell_angle_gamma    87.76967926577302

_space_group_name_H-M_alt    "P 1"
_space_group_IT_number       1

loop_
  _space_group_symop_operation_xyz
  'x, y, z'

loop_
  _atom_site_type_symbol
  _atom_site_label
  _atom_site_symmetry_multiplicity
  _atom_site_fract_x
  _atom_site_fract_y
  _atom_site_fract_z
  _atom_site_occupancy
  N   N1        1.0  0.6987180308326614  0.5418062507672248  0.5569449340792283  1.0000
  C   C1        1.0  0.6383509658964117  0.5027105513668757  0.5459414166622638  1.0000
  C   C2        1.0  0.5632609719694845  0.4540798067566026  0.5322542357188436  1.0000
  C   C3        1.0  0.5456170250752995  0.3747384414581316  0.4273200709019076  1.0000
  C   C4        1.0  0.472709207157304  0.3273978641932307  0.41394815207130686  1.0000
  C   C5        1.0  0.4163989828168443  0.35897921709644276  0.5054781369394157  1.0000
  C   C6        1.0  0.33891604676970605  0.30879604759770474  0.4913492427306261  1.0000
  C   C7        1.0  0.2762274887020718  0.3996269456995569  0.517240651435994  1.0000
  C   C8        1.0  0.203178637918156  0.35206079306343296  0.5038825059160781  1.0000
  C   C9        1.0  0.1394231289960473  0.44588178006733054  0.5301364154973478  1.0000
  N   N2        1.0  0.0881767247178452  0.5213073627002125  0.551243835335788  1.0000
  C   C10       1.0  0.1922364165696205  0.2133771268357712  0.46460773318317306  1.0000
  C   C11       1.0  0.2540676916026446  0.12253083889514206  0.43870794414727293  1.0000
  C   C12       1.0  0.3269995822548208  0.16965865797425006  0.451863806059299  1.0000
  C   C13       1.0  0.43473123692998106  0.43886982176528627  0.6106312235596408  1.0000
  C   C14       1.0  0.5076931190731726  0.4859988720155437  0.6238476336901333  1.0000
  H   H1        1.0  0.5881528560621218  0.34975787349355625  0.3556416958054842  1.0000
  H   H2        1.0  0.4601330170448774  0.26775746408966783  0.33108063602960836  1.0000
  H   H3        1.0  0.2841143327561945  0.5079101863657385  0.5460617211404168  1.0000
  H   H4        1.0  0.1359846291482838  0.17556316674395256  0.4540325640368059  1.0000
  H   H5        1.0  0.24547736580181637  0.015158736882854514  0.40868646866110736  1.0000
  H   H6        1.0  0.3740523106281771  0.09661609084921287  0.4328530177233445  1.0000
  H   H7        1.0  0.3929156625481053  0.46325149702793533  0.6836039265795706  1.0000
  H   H8        1.0  0.5207900125563911  0.546995349609015  0.7056732852434073  1.0000
  C   C15       1.0  0.8958401153213092  0.10785515805820992  0.5542817940119513  1.0000
  C   C16       1.0  0.9047232881032424  0.19073247811991115  0.43527997758891823  1.0000
  C   C17       1.0  0.9061300704718434  0.1257042325701203  0.3176478528815627  1.0000
  C   C18       1.0  0.8978627212427193  0.976509106429118  0.3162009628976157  1.0000
  C   C19       1.0  0.8913204994424897  0.8919006947520931  0.4342078657019328  1.0000
  C   C20       1.0  0.8910618622250628  0.9552469938082897  0.5539181756488958  1.0000
  C   C21       1.0  0.9010377401737197  0.9063505506370817  0.18976604629286006  1.0000
  H   H9        1.0  0.8333100688462899  0.18930409888491773  0.855984957824079  1.0000
  H   H10       1.0  0.9089822891676534  0.30711604317864527  0.4329861233216554  1.0000
  H   H11       1.0  0.9128749717226105  0.19222549939385591  0.22741611868139278  1.0000
  H   H12       1.0  0.8881433383294917  0.775563983652632  0.43259692897081353  1.0000
  H   H13       1.0  0.8519519566962159  0.6597117356605613  0.7586980337505262  1.0000
  H   H14       1.0  0.9601351697727303  0.8736930259671127  0.16763453886732216  1.0000
  H   H15       1.0  0.8791237825231969  0.9823212494383718  0.10906745391315864  1.0000
  H   H16       1.0  0.8663671446749217  0.8090033953338679  0.19546655719687278  1.0000
  C   C22       1.0  0.8934510041212176  0.5315511034333233  0.17285747609821953  1.0000
  C   C23       1.0  0.881224013721746  0.3823811554143144  0.18234680827096894  1.0000
  C   C24       1.0  0.8751573531483434  0.30836708809749425  0.07009836431980121  1.0000
  C   C25       1.0  0.8812240468725339  0.3823812351306941  0.9472389087728934  1.0000
  C   C26       1.0  0.8934510026243202  0.5315510290561389  0.9353424952316605  1.0000
  C   C27       1.0  0.8995049100487474  0.6054088927204735  0.0488056887360373  1.0000
  Cl  Cl1       1.0  0.8598829398699113  0.12201838527197449  0.08345633726205381  1.0000
  H   H17       1.0  0.898057133684416  0.5877408253740475  0.49658594119985494  1.0000
  H   H18       1.0  0.8763610643363672  0.3230527831271677  0.2766461668372304  1.0000
  H   H19       1.0  0.8763611169659637  0.3230527597749626  0.8614452000034452  1.0000
  H   H20       1.0  0.9089346983217989  0.720453235693888  0.040558906408922235  1.0000
  H   H21       1.0  0.8980569907584801  0.5877408201324639  0.6035583128172184  1.0000
  Zn  Zn1       1.0  0.8111074176328902  0.5358868645326904  0.5553072300871102  1.0000
  Zn  Zn2       1.0  0.9757873860390966  0.5272149876779968  0.5528922174478428  1.0000
  C   C28       1.0  0.8934817272507123  0.5258031945288208  0.7912189644120892  1.0000
  C   C29       1.0  0.8934148644560016  0.5373003834941983  0.31698058339394497  1.0000
  C   C30       1.0  0.8919612000207123  0.7950721153594584  0.5488134826819604  1.0000
  C   C31       1.0  0.8949353452670125  0.26802973212401415  0.5593861359077399  1.0000
  O   O1        1.0  0.9558979609214814  0.535932667682731  0.36443313277385836  1.0000
  O   O2        1.0  0.9559869225080955  0.520588067987908  0.7419331030635603  1.0000
  O   O3        1.0  0.9547582350751049  0.7380261712922014  0.5461889732184968  1.0000
  O   O4        1.0  0.9571265921021553  0.31849457765901845  0.5601771660961836  1.0000
  O   O5        1.0  0.8297681553726314  0.7446072775125256  0.548022282256065  1.0000
  O   O6        1.0  0.8309968330274106  0.5271709077086351  0.7437663421347589  1.0000
  O   O7        1.0  0.8309078717743181  0.5425154571214572  0.3662648109828097  1.0000
  O   O8        1.0  0.8321365030101087  0.3250773567780212  0.5620089416451689  1.0000
