data_image0
_chemical_formula_structural       NC9NC4H8C7ONH7C6NO2H3Zn2C4O8
_chemical_formula_sum              "N4 C30 H18 O11 Zn2"
_cell_length_a       16.32274767691083
_cell_length_b       10.297852080636378
_cell_length_c       9.273395971720356
_cell_angle_alpha    84.96325203877277
_cell_angle_beta     89.35243876569035
_cell_angle_gamma    89.50344002776104

_space_group_name_H-M_alt    "P 1"
_space_group_IT_number       1

loop_
  _space_group_symop_operation_xyz
  'x, y, z'

loop_
  _atom_site_type_symbol
  _atom_site_label
  _atom_site_symmetry_multiplicity
  _atom_site_fract_x
  _atom_site_fract_y
  _atom_site_fract_z
  _atom_site_occupancy
  N   N1        1.0  0.7729176318685115  0.42732848076842544  0.3957623895224871  1.0000
  C   C1        1.0  0.7206679386485179  0.3804469379529536  0.3354084360381242  1.0000
  C   C2        1.0  0.6557209320377714  0.3222196969034024  0.26044834320204546  1.0000
  C   C3        1.0  0.6674195405945063  0.2425752671703343  0.1579115041972199  1.0000
  C   C4        1.0  0.5881251014665863  0.20370832593591293  0.10787693533039922  1.0000
  C   C5        1.0  0.5290879101439218  0.2605891201734629  0.18110970593228037  1.0000
  C   C6        1.0  0.4391779497462363  0.24555600069936978  0.16175886520646676  1.0000
  C   C7        1.0  0.3834606274336579  0.31185431706007805  0.24710817011018782  1.0000
  C   C8        1.0  0.2987756374398202  0.2990062934896369  0.23056971534178605  1.0000
  C   C9        1.0  0.24264265855295605  0.36734275003730577  0.31854196158491654  1.0000
  N   N2        1.0  0.19753070601872902  0.42227402005223263  0.3892567477607536  1.0000
  C   C10       1.0  0.26875512702141696  0.2197527222638376  0.12854461684764917  1.0000
  C   C11       1.0  0.32315036972591815  0.15354221930595235  0.043308742721132054  1.0000
  C   C12       1.0  0.4076771975132674  0.1660441781404931  0.05940155387086122  1.0000
  C   C13       1.0  0.5666900581282258  0.34352765999204055  0.2878845437253017  1.0000
  H   H1        1.0  0.7263838005220529  0.2116053276907535  0.1180372528479716  1.0000
  H   H2        1.0  0.5799490919404511  0.1386150347060895  0.024073499254151805  1.0000
  H   H3        1.0  0.40545968411918626  0.3737250890490809  0.32675607772135296  1.0000
  H   H4        1.0  0.2033827642412992  0.20916861009736817  0.11492061020732434  1.0000
  H   H5        1.0  0.2997542384950292  0.09223219169979657  0.9643829857883818  1.0000
  H   H6        1.0  0.44755551311623437  0.11308003361445573  0.9912187795625145  1.0000
  H   H7        1.0  0.5497985586381635  0.30771793709660056  0.40071772952071427  1.0000
  H   H8        1.0  0.549913454079428  0.44784156231190525  0.26324593469408386  1.0000
  C   C14       1.0  0.9853154268394448  0.043362917974892445  0.3925167898480908  1.0000
  C   C15       1.0  0.9742678413806617  0.05445181250692288  0.2418747221779791  1.0000
  C   C16       1.0  0.9679422589016322  0.9429891372173322  0.16562109639487477  1.0000
  C   C17       1.0  0.9740607640336443  0.8192025372062953  0.2418280922192393  1.0000
  C   C18       1.0  0.9851407202303079  0.8062293397229185  0.3925146666436259  1.0000
  C   C19       1.0  0.9905016234120196  0.9188409771287379  0.46691160352457456  1.0000
  C   C20       1.0  0.9564770341552599  0.9572996468240788  0.006490414951193294  1.0000
  O   O1        1.0  0.9784453648491712  0.06081984534394414  0.9342651062803892  1.0000
  N   N3        1.0  0.9199541854472418  0.856626773691173  0.9325158588335136  1.0000
  H   H9        1.0  0.006492171552253679  0.22967554798357837  0.6771492415873983  1.0000
  H   H10       1.0  0.9698432182585596  0.15017933216867463  0.18375043134687052  1.0000
  H   H11       1.0  0.9718067306413637  0.7325746446109285  0.18396259736320086  1.0000
  H   H12       1.0  0.9990140910212496  0.9095411035019559  0.5830133481538677  1.0000
  H   H13       1.0  0.007394821449215215  0.5744412252514842  0.6769990637644541  1.0000
  H   H14       1.0  0.9159500713860262  0.8668078602264674  0.819783114075666  1.0000
  H   H15       1.0  0.8919129257419254  0.7763022111051845  0.9884163777804891  1.0000
  C   C21       1.0  0.9856934266682559  0.42878093862270844  0.9685718860739415  1.0000
  C   C22       1.0  0.9126617212638601  0.4592978047953291  0.0402773422261813  1.0000
  C   C23       1.0  0.8394034924432779  0.4775353548268334  0.9649702229008942  1.0000
  C   C24       1.0  0.8370986810901659  0.465629574926437  0.8157109721397644  1.0000
  C   C25       1.0  0.9100860933977845  0.4373389116689601  0.7425685027878939  1.0000
  C   C26       1.0  0.9847627290779036  0.42081131354729706  0.8164596444473915  1.0000
  N   N4        1.0  0.761140792896724  0.48346638940308984  0.7387371333630699  1.0000
  O   O2        1.0  0.6899323616784979  0.5122290697968057  0.8106025592373508  1.0000
  O   O3        1.0  0.7585339471427104  0.47279288993680746  0.6057815983567814  1.0000
  H   H16       1.0  0.1650087673436862  0.2811301628723457  0.08224740085989324  1.0000
  H   H17       1.0  0.78425829056452  0.49973013051637866  0.024197968076449694  1.0000
  H   H18       1.0  0.10702267736628923  0.3251837726798741  0.5431377763984875  1.0000
  Zn  Zn1       1.0  0.8954517907751286  0.42586630801208486  0.39389333911560787  1.0000
  Zn  Zn2       1.0  0.07499654274349998  0.42372542273565994  0.3911376251047156  1.0000
  C   C27       1.0  0.984938024312822  0.41714314947742515  0.6561907259597093  1.0000
  C   C28       1.0  0.985512269298115  0.43245019547734814  0.12884034986029946  1.0000
  C   C29       1.0  0.9851758655582177  0.6620854698199101  0.38676226085006293  1.0000
  C   C30       1.0  0.9852743670594941  0.18750631455588798  0.3982688928827527  1.0000
  O   O4        1.0  0.05358777019400085  0.4328635100209812  0.18158213128727918  1.0000
  O   O5        1.0  0.05313283645869271  0.41510397655140735  0.6013570057828501  1.0000
  O   O6        1.0  0.05332397611467442  0.6128979947889464  0.38379162804985856  1.0000
  O   O7        1.0  0.05339656938824411  0.23506950282332986  0.39914740171528273  1.0000
  O   O8        1.0  0.9170517028605802  0.6145222286564795  0.3858835634378377  1.0000
  O   O9        1.0  0.9168605629280195  0.41672977172998044  0.6034488641908187  1.0000
  O   O10       1.0  0.9173154986333713  0.43448927624933  0.18367225398346698  1.0000
  O   O11       1.0  0.9171242977075852  0.23669525874385466  0.4012376326492555  1.0000
