data_image0
_chemical_formula_structural       NC12NC2H8C6NCOCH9C6OCH7Zn2C4O8
_chemical_formula_sum              "N3 C33 H24 O10 Zn2"
_cell_length_a       17.80743265337812
_cell_length_b       10.300268703208218
_cell_length_c       9.273891588657154
_cell_angle_alpha    86.07587478402297
_cell_angle_beta     91.22048166911064
_cell_angle_gamma    89.41550465668445

_space_group_name_H-M_alt    "P 1"
_space_group_IT_number       1

loop_
  _space_group_symop_operation_xyz
  'x, y, z'

loop_
  _atom_site_type_symbol
  _atom_site_label
  _atom_site_symmetry_multiplicity
  _atom_site_fract_x
  _atom_site_fract_y
  _atom_site_fract_z
  _atom_site_occupancy
  N   N1        1.0  0.7116455942936796  0.3938683764109508  0.4479176892204346  1.0000
  C   C1        1.0  0.661041150138973  0.42279973603574655  0.3716833096735843  1.0000
  C   C2        1.0  0.5980841793996109  0.4587882807084734  0.27685733814228186  1.0000
  C   C3        1.0  0.6102079013978836  0.5116525428360663  0.13634851881492516  1.0000
  C   C4        1.0  0.5491508679626974  0.5461594045696117  0.04418134299494558  1.0000
  C   C5        1.0  0.4758178823274004  0.5280594426749987  0.0917906987563093  1.0000
  C   C6        1.0  0.46271590289090736  0.4750806490665329  0.23281901252561069  1.0000
  C   C7        1.0  0.5246303049547391  0.4405768906231715  0.3249678654325687  1.0000
  C   C8        1.0  0.3848057206496061  0.4558926781788993  0.2836024116277214  1.0000
  C   C9        1.0  0.3656053710725568  0.4842353190984792  0.4245832885022405  1.0000
  C   C10       1.0  0.29224230047423644  0.4661772980241066  0.47223765721748984  1.0000
  C   C11       1.0  0.23713396456388883  0.4195300132293101  0.37984103619436405  1.0000
  C   C12       1.0  0.16162989214395404  0.4009319607641515  0.4290500018005412  1.0000
  N   N2        1.0  0.1009299645331297  0.38598037676783625  0.4686106248994671  1.0000
  C   C13       1.0  0.2556411078735922  0.39102341632571624  0.2394626883764697  1.0000
  C   C14       1.0  0.3289521438236109  0.40909389026724036  0.1915243631018886  1.0000
  H   H1        1.0  0.6667813799788899  0.5261617340351654  0.09813409849706911  1.0000
  H   H2        1.0  0.5586550322968152  0.5873632728681688  0.9356767986126249  1.0000
  H   H3        1.0  0.4293835732591949  0.5570957295736936  0.01900519428753711  1.0000
  H   H4        1.0  0.5158252092822241  0.39798665012259155  0.4333342984877486  1.0000
  H   H5        1.0  0.4070631311480811  0.5220102675333604  0.4973498797967933  1.0000
  H   H6        1.0  0.278479072178433  0.488914897950145  0.5809979298251303  1.0000
  H   H7        1.0  0.21346487914384574  0.3545194487558767  0.16715436426966446  1.0000
  H   H8        1.0  0.3421863178155241  0.3848235854692926  0.08310068443267006  1.0000
  C   C15       1.0  0.9063676623203558  0.008575193930080431  0.45827689823645695  1.0000
  C   C16       1.0  0.9194670114957469  0.016478564318358927  0.3091420521445345  1.0000
  C   C17       1.0  0.9270915522571672  0.9031424519131507  0.23435522485958618  1.0000
  C   C18       1.0  0.9192969786715673  0.7813227829362016  0.309168972172802  1.0000
  C   C19       1.0  0.9062150392663559  0.7712635696080443  0.4582642002091417  1.0000
  C   C20       1.0  0.9001019669132727  0.8854796730512845  0.5321336197633015  1.0000
  N   N3        1.0  0.9393344786540571  0.9096645923687147  0.08124308803950386  1.0000
  C   C21       1.0  0.9836570679608978  0.007244935815876381  0.00614997957682562  1.0000
  O   O1        1.0  0.025877058485832324  0.07992562641107748  0.07495406575539687  1.0000
  C   C22       1.0  0.9841578154587258  0.016808963641475216  0.844711423498175  1.0000
  H   H9        1.0  0.9002960246708572  0.3330383910224328  0.5145815395465543  1.0000
  H   H10       1.0  0.9222535660812752  0.11079495021479538  0.2506528471541243  1.0000
  H   H11       1.0  0.9241314665435815  0.6943832419877509  0.2504249650637944  1.0000
  H   H12       1.0  0.8900192837378476  0.8785743615002274  0.6471642233963502  1.0000
  H   H13       1.0  0.9001483327689577  0.44008769926350283  0.5143603970953254  1.0000
  H   H14       1.0  0.918812883165719  0.8341858683337726  0.022238001278249268  1.0000
  H   H15       1.0  0.9267868394784631  0.0006043988863062612  0.8007971745614961  1.0000
  H   H16       1.0  0.002902654452770604  0.11474761884839356  0.8036789258920822  1.0000
  H   H17       1.0  0.023044217241316115  0.9419731507101249  0.8071009366539431  1.0000
  C   C23       1.0  0.9075226017255118  0.38645513082049066  0.03506069428394354  1.0000
  C   C24       1.0  0.9690264241895467  0.4400593732676801  0.10690337897709992  1.0000
  C   C25       1.0  0.02626753949097393  0.5034470178760782  0.030135970044688824  1.0000
  C   C26       1.0  0.02220950119609921  0.513551673807741  0.8784795870496418  1.0000
  C   C27       1.0  0.9622839445198594  0.45912914123912346  0.8053786038831793  1.0000
  C   C28       1.0  0.9050600958321539  0.3933835627144518  0.8814803961499004  1.0000
  O   O2        1.0  0.08572030301803069  0.555493929598735  0.10850254543752301  1.0000
  C   C29       1.0  0.1475625650182235  0.6225843649401361  0.044713068105199046  1.0000
  H   H18       1.0  0.7288697437959473  0.31031503990355724  0.13658189368052787  1.0000
  H   H19       1.0  0.06547019105868901  0.5622637943457953  0.8158567305038793  1.0000
  H   H20       1.0  0.9616765102508459  0.46583432631635646  0.6882650986879613  1.0000
  H   H21       1.0  0.7859234801798208  0.3369505124984498  0.5997052437785193  1.0000
  H   H22       1.0  0.12738164239673577  0.7108716169894942  0.9792442209190013  1.0000
  H   H23       1.0  0.1788956033103415  0.5574994398648043  0.9759663337514564  1.0000
  H   H24       1.0  0.18600743014335053  0.6528456070966704  0.1316000123155916  1.0000
  Zn  Zn1       1.0  0.8239846344005243  0.3915886710125851  0.4538975318657112  1.0000
  Zn  Zn2       1.0  0.988590889852429  0.38824958547961624  0.46264253767179203  1.0000
  C   C30       1.0  0.905524934112597  0.3869006022376532  0.7214889645003568  1.0000
  C   C31       1.0  0.9070523868961606  0.39293925748444036  0.19505134195620988  1.0000
  C   C32       1.0  0.9062567402286323  0.6270522818469506  0.45252345496216245  1.0000
  C   C33       1.0  0.9063205247001723  0.1527860194216939  0.46401692537126404  1.0000
  O   O3        1.0  0.9693617957288817  0.3938425586200729  0.25206434907026987  1.0000
  O   O4        1.0  0.9681478658413691  0.3834620293760005  0.6711127996021125  1.0000
  O   O5        1.0  0.9687379620873806  0.5773875771414663  0.45392120291386645  1.0000
  O   O6        1.0  0.9687716436264194  0.1999170203992302  0.46925583471639415  1.0000
  O   O7        1.0  0.8438038244545191  0.5799212372337887  0.4472842318292865  1.0000
  O   O8        1.0  0.8432137281164459  0.3859972490625885  0.6644757516488514  1.0000
  O   O9        1.0  0.8444276631039334  0.3963777188687352  0.24542556841451146  1.0000
  O   O10       1.0  0.8438375106859072  0.2024521722440873  0.46261716211093584  1.0000
