data_image0
_chemical_formula_structural       NC10NC3NH7C7OC4NC3H8C6NCOC6H11Zn2C4O8
_chemical_formula_sum              "N5 C44 H26 O10 Zn2"
_cell_length_a       19.210446455230148
_cell_length_b       10.299371701877257
_cell_length_c       10.299662537453276
_cell_angle_alpha    85.55951811676591
_cell_angle_beta     89.97714991374127
_cell_angle_gamma    89.95709994445667

_space_group_name_H-M_alt    "P 1"
_space_group_IT_number       1

loop_
  _space_group_symop_operation_xyz
  'x, y, z'

loop_
  _atom_site_type_symbol
  _atom_site_label
  _atom_site_symmetry_multiplicity
  _atom_site_fract_x
  _atom_site_fract_y
  _atom_site_fract_z
  _atom_site_occupancy
  N   N1        1.0  0.6557804782160539  0.4207307718753072  0.5678598849593592  1.0000
  C   C1        1.0  0.5955519312809381  0.4229381688581826  0.5680919087051189  1.0000
  C   C2        1.0  0.5207474947217675  0.4256749369851822  0.5683793579960964  1.0000
  C   C3        1.0  0.48513636102314983  0.541898046994749  0.583537281052189  1.0000
  C   C4        1.0  0.41247088857235104  0.5420496029687898  0.5834847428428842  1.0000
  C   C5        1.0  0.3755807390096067  0.426383860946004  0.5684661225018188  1.0000
  C   C6        1.0  0.2982586120038814  0.425027461331978  0.5683149924025107  1.0000
  C   C7        1.0  0.260512109531316  0.5286216672443975  0.5049932818832763  1.0000
  C   C8        1.0  0.1877337515896689  0.527219496720138  0.5048836520152478  1.0000
  C   C9        1.0  0.1517004930211555  0.4224806469123823  0.5680448369209132  1.0000
  C   C10       1.0  0.0767709743694653  0.42117863523829735  0.5679074917916642  1.0000
  N   N2        1.0  0.016533123175438903  0.4201317736303891  0.5677971011666421  1.0000
  C   C11       1.0  0.18872334187958584  0.31901214178997805  0.6313415883081304  1.0000
  C   C12       1.0  0.2615035407503259  0.32014002793630797  0.6315013563273452  1.0000
  C   C13       1.0  0.4138017225919752  0.31198087061375546  0.5535970871999578  1.0000
  N   N3        1.0  0.4845716763768582  0.31442574951984614  0.5537636183259447  1.0000
  H   H1        1.0  0.5132369303098137  0.6313257801992822  0.5956212082955985  1.0000
  H   H2        1.0  0.3852015015105244  0.6320586430509325  0.5969636419890378  1.0000
  H   H3        1.0  0.2872452724824184  0.6098941440936694  0.4540340789145949  1.0000
  H   H4        1.0  0.1595930790281937  0.6076637533417505  0.45525453317256553  1.0000
  H   H5        1.0  0.1613506841048597  0.2376045397158495  0.6808708405072531  1.0000
  H   H6        1.0  0.28899919540266933  0.23981438755625126  0.6825682676890893  1.0000
  H   H7        1.0  0.3875369126593081  0.2211089388355911  0.5400715994489491  1.0000
  C   C14       1.0  0.8361237318556488  0.03906095769864292  0.5677015057138274  1.0000
  C   C15       1.0  0.839523137484092  0.048447650749448894  0.43103639983461406  1.0000
  C   C16       1.0  0.8404473068483003  0.93601446203968  0.3620440479796365  1.0000
  C   C17       1.0  0.8395317082042227  0.8131792012871691  0.4313537933356032  1.0000
  C   C18       1.0  0.8361965184015312  0.801791594991968  0.5679667043630139  1.0000
  C   C19       1.0  0.8343286854263436  0.9153346517638161  0.635334320684098  1.0000
  C   C20       1.0  0.8447678933061352  0.9457811687564084  0.21779370920355293  1.0000
  O   O1        1.0  0.8782776965484236  0.8599993940523871  0.16284216156580092  1.0000
  C   C21       1.0  0.8110619772616484  0.05278124383399251  0.1358876177027615  1.0000
  C   C22       1.0  0.840889756223063  0.09742117073009914  0.015912488436886196  1.0000
  C   C23       1.0  0.8090193152175317  0.19740696328817894  0.9371274725395846  1.0000
  C   C24       1.0  0.8401977979632933  0.24322952166584355  0.814965965136981  1.0000
  N   N4        1.0  0.8652639083325989  0.2800612247878338  0.7167658277132324  1.0000
  C   C25       1.0  0.7468015268702255  0.2526735722050983  0.9773100300624287  1.0000
  C   C26       1.0  0.7163863493449649  0.20782464856201832  0.09554571655091171  1.0000
  C   C27       1.0  0.7480569282254673  0.10813666656679133  0.17431936965020234  1.0000
  H   H8        1.0  0.8422357624122105  0.14338678800110127  0.37814945003872924  1.0000
  H   H9        1.0  0.8407600710737293  0.7263595937213202  0.3783414658850097  1.0000
  H   H10       1.0  0.8317083728984409  0.9072943049204295  0.74069337614508  1.0000
  H   H11       1.0  0.8355011712264754  0.4699555925727782  0.62049195001238  1.0000
  H   H12       1.0  0.8891674444234057  0.05526175268113586  0.9843272838758907  1.0000
  H   H13       1.0  0.721715340636496  0.3299541299727002  0.9170750737034494  1.0000
  H   H14       1.0  0.6679899479400337  0.2500008830447096  0.12597793879055796  1.0000
  H   H15       1.0  0.7228971052155698  0.07343461576053235  0.264479831599886  1.0000
  C   C28       1.0  0.8362080551683237  0.42056673394024985  0.18645816555256856  1.0000
  C   C29       1.0  0.907269341994842  0.45282338032719105  0.18264307059162158  1.0000
  C   C30       1.0  0.9432713337611514  0.46718870922673394  0.06403715614012297  1.0000
  C   C31       1.0  0.9071475080596179  0.452513508748185  0.9474996874060522  1.0000
  C   C32       1.0  0.8361122136860163  0.42028582355819766  0.9492100408256726  1.0000
  C   C33       1.0  0.8011029317565982  0.40404975225275525  0.06925749599941901  1.0000
  N   N5        1.0  0.015760951486688764  0.5021539984266294  0.06355316417131296  1.0000
  C   C34       1.0  0.06502288220802144  0.4622220936396785  0.9693177310155452  1.0000
  O   O2        1.0  0.05231740449778366  0.36368478989685177  0.907734154497256  1.0000
  C   C35       1.0  0.13186237114173638  0.532439962229355  0.9469801170213521  1.0000
  C   C36       1.0  0.1402724413511092  0.6604964960466295  0.9833769985833705  1.0000
  C   C37       1.0  0.20342815640404321  0.7259473014495601  0.9611982102922298  1.0000
  C   C38       1.0  0.258680031948082  0.6648284305829417  0.9021925403702491  1.0000
  C   C39       1.0  0.25083494397291783  0.5382173447414815  0.8647900954970256  1.0000
  C   C40       1.0  0.18779787131474013  0.47230930933266646  0.8866396247528443  1.0000
  H   H16       1.0  0.7020023883695061  0.3609263209938009  0.40082556959890914  1.0000
  H   H17       1.0  0.9351599973842678  0.46599627024417245  0.27206318873576407  1.0000
  H   H18       1.0  0.9341102870818292  0.46843269530411596  0.8553873452042776  1.0000
  H   H19       1.0  0.7463248878146697  0.37916655804485133  0.07133438576205009  1.0000
  H   H20       1.0  0.8086384935044103  0.40960437954094386  0.6222875185667638  1.0000
  H   H21       1.0  0.03476292030270556  0.5493263662094283  0.14248886194880495  1.0000
  H   H22       1.0  0.09798147417968117  0.7111020386328963  0.027175783052614033  1.0000
  H   H23       1.0  0.20942569572367886  0.8244170901311864  0.989347264462908  1.0000
  H   H24       1.0  0.3074937589728144  0.7157256204364097  0.8850842558093828  1.0000
  H   H25       1.0  0.29364076632856895  0.4910282647378439  0.8187954289870374  1.0000
  H   H26       1.0  0.1829931465542285  0.37406016171995354  0.8571154030129255  1.0000
  Zn  Zn1       1.0  0.7598858967526539  0.42055444709295586  0.5678492649139122  1.0000
  Zn  Zn2       1.0  0.9124276863522687  0.42029751190935793  0.567818353505696  1.0000
  C   C41       1.0  0.8361282652922034  0.4151652385214974  0.8050318116403381  1.0000
  C   C42       1.0  0.8361869837046658  0.42568835625376983  0.33063593448027184  1.0000
  C   C43       1.0  0.8361798258837964  0.6576211964544987  0.5627413133798702  1.0000
  C   C44       1.0  0.8361353709036259  0.18323083807461593  0.5729265014486709  1.0000
  O   O3        1.0  0.8940687255631466  0.42730404816334716  0.37901157812427366  1.0000
  O   O4        1.0  0.894022212116575  0.4133535591642101  0.7566323327591657  1.0000
  O   O5        1.0  0.8940630674077366  0.6091398122863096  0.5609810417960267  1.0000
  O   O6        1.0  0.8940278182329302  0.23151780445503944  0.5746627717247291  1.0000
  O   O7        1.0  0.7782857128169671  0.6093341546363698  0.5610048466985971  1.0000
  O   O8        1.0  0.7782448576802276  0.41354946184951924  0.7566560689575237  1.0000
  O   O9        1.0  0.7782913713650169  0.4274999061674675  0.37903375287743013  1.0000
  O   O10       1.0  0.77825046401883  0.2317136531344639  0.5746850438442875  1.0000
