data_image0
_chemical_formula_structural       NC8NH4C6ClH5C6H6Zn2C4O8
_chemical_formula_sum              "N2 C24 H15 Cl1 Zn2 O8"
_cell_length_a       13.859017124695912
_cell_length_b       9.276545438789551
_cell_length_c       10.681121600428286
_cell_angle_alpha    85.59384611870172
_cell_angle_beta     89.99985505477505
_cell_angle_gamma    89.40963735980037

_space_group_name_H-M_alt    "P 1"
_space_group_IT_number       1

loop_
  _space_group_symop_operation_xyz
  'x, y, z'

loop_
  _atom_site_type_symbol
  _atom_site_label
  _atom_site_symmetry_multiplicity
  _atom_site_fract_x
  _atom_site_fract_y
  _atom_site_fract_z
  _atom_site_occupancy
  N   N1        1.0  0.8977086723854664  0.578059275940688  0.6194685297821994  1.0000
  C   C1        1.0  0.8255118891035503  0.5552034327630968  0.5706609768887849  1.0000
  C   C2        1.0  0.7357033635379169  0.5267741084905877  0.5099506540778466  1.0000
  C   C3        1.0  0.6478969092186062  0.5544898238795972  0.5691355809007681  1.0000
  C   C4        1.0  0.5604730352259365  0.5267753341391037  0.5099501513940587  1.0000
  C   C5        1.0  0.5610380762457103  0.47133763029017534  0.3915616283306107  1.0000
  C   C6        1.0  0.6486612352043422  0.4437284387840624  0.33260452005014324  1.0000
  C   C7        1.0  0.7359034513201157  0.47133528116787377  0.3915626509108465  1.0000
  C   C8        1.0  0.47027204399675254  0.5552043591842137  0.570660544672623  1.0000
  N   N2        1.0  0.3977597957494212  0.5780595985046333  0.6194683422727223  1.0000
  H   H1        1.0  0.6476007512021247  0.597400772530644  0.660771134525197  1.0000
  H   H2        1.0  0.4938931851942474  0.44952434191786056  0.3449766130207139  1.0000
  H   H3        1.0  0.6489568543020939  0.4009051428491335  0.2411545442813927  1.0000
  H   H4        1.0  0.803349432499127  0.4495198923675745  0.3449785026825889  1.0000
  C   C9        1.0  0.15065094405775392  0.15462431128923027  0.6192620080525041  1.0000
  C   C10       1.0  0.15100712192470622  0.23827578914543165  0.5036756595014054  1.0000
  C   C11       1.0  0.1425850462211482  0.1731964006087583  0.3906050713214855  1.0000
  C   C12       1.0  0.13360743299096467  0.023605251656670715  0.3913812684618794  1.0000
  C   C13       1.0  0.13473974235249564  0.938415359699484  0.5048460276351765  1.0000
  C   C14       1.0  0.1448268543979836  0.0014835348086532634  0.6196857168048875  1.0000
  Cl  Cl1       1.0  0.14182624541581812  0.27981781971305053  0.24763777800086406  1.0000
  H   H5        1.0  0.20001479265069189  0.41758335095255483  0.8161469508688569  1.0000
  H   H6        1.0  0.15552813363554252  0.35499635814473396  0.5011962863223245  1.0000
  H   H7        1.0  0.12666963307258183  0.9728836546144403  0.3039031099688531  1.0000
  H   H8        1.0  0.13002231985154378  0.8221548910245469  0.5025432663321474  1.0000
  H   H9        1.0  0.11249729871199654  0.7027479284767949  0.8221845611639351  1.0000
  C   C15       1.0  0.14773890902886055  0.578053883490748  0.2517286288476936  1.0000
  C   C16       1.0  0.07922780685761666  0.49785888188245886  0.19026603729404432  1.0000
  C   C17       1.0  0.07922774597906956  0.49785897434034987  0.059383897387429  1.0000
  C   C18       1.0  0.14773883268992316  0.5780539541740308  0.9872190645594265  1.0000
  C   C19       1.0  0.21619338961389167  0.6581824981425828  0.04868104253252348  1.0000
  C   C20       1.0  0.21619337742270384  0.6581824757834087  0.17957334118438625  1.0000
  H   H10       1.0  0.21702178909252479  0.6591530652255111  0.5450269273360292  1.0000
  H   H11       1.0  0.025525570691571353  0.4349982494364435  0.24327143703560816  1.0000
  H   H12       1.0  0.025525550073188574  0.43499831731060956  0.014767407844041402  1.0000
  H   H13       1.0  0.26990263810019255  0.7210514140015258  0.9957199823010181  1.0000
  H   H14       1.0  0.2699025898330485  0.721051363453703  0.22414434976014896  1.0000
  H   H15       1.0  0.2170220936921201  0.659152562850702  0.683097901371151  1.0000
  Zn  Zn1       1.0  0.042012654374175236  0.5780555192364434  0.6194757093472498  1.0000
  Zn  Zn2       1.0  0.25345588701869515  0.5780515927356433  0.6194714279891138  1.0000
  C   C21       1.0  0.14777622599178478  0.5723095626491389  0.8481927654402988  1.0000
  C   C22       1.0  0.14769461184227062  0.5837993686446734  0.39075449567252196  1.0000
  C   C23       1.0  0.14592274626457624  0.8414090817237942  0.6146153191346284  1.0000
  C   C24       1.0  0.14954803133299133  0.31469811716238594  0.6243320078781114  1.0000
  O   O1        1.0  0.22792139340774753  0.585719825170467  0.43741121869547706  1.0000
  O   O2        1.0  0.22802997302121233  0.5703850382110254  0.8015324319302549  1.0000
  O   O3        1.0  0.22653218300575118  0.7876863031118724  0.61291699221127  1.0000
  O   O4        1.0  0.22941911120102287  0.36841857058591865  0.6260265645249427  1.0000
  O   O5        1.0  0.06604935803663836  0.7876885413890777  0.6129205728062956  1.0000
  O   O6        1.0  0.06754713613337837  0.5703890088987724  0.8015359466202361  1.0000
  O   O7        1.0  0.06743855692974444  0.5857237456102897  0.43741322773773306  1.0000
  O   O8        1.0  0.06893627478999709  0.3684224807123526  0.6260286674515931  1.0000
