data_image0
_chemical_formula_structural       NC8NC6H8C8H4C6OCH7Zn2C4O8
_chemical_formula_sum              "N2 C33 H19 O9 Zn2"
_cell_length_a       17.457602349358154
_cell_length_b       9.27514070457351
_cell_length_c       9.273891588657152
_cell_angle_alpha    86.21671130185581
_cell_angle_beta     92.54290593679646
_cell_angle_gamma    92.27341969939751

_space_group_name_H-M_alt    "P 1"
_space_group_IT_number       1

loop_
  _space_group_symop_operation_xyz
  'x, y, z'

loop_
  _atom_site_type_symbol
  _atom_site_label
  _atom_site_symmetry_multiplicity
  _atom_site_fract_x
  _atom_site_fract_y
  _atom_site_fract_z
  _atom_site_occupancy
  N   N1        1.0  0.7357430512234054  0.6000369014817524  0.4806186158800916  1.0000
  C   C1        1.0  0.6744192232248649  0.5489261083972112  0.4686916687074454  1.0000
  C   C2        1.0  0.5981298021164885  0.4853507224032854  0.45386515269133865  1.0000
  C   C3        1.0  0.539603579902531  0.5306938112108317  0.5371018136076493  1.0000
  C   C4        1.0  0.46476317883124363  0.46947709785311464  0.5229638943220465  1.0000
  C   C5        1.0  0.402645421603117  0.5173550717868316  0.6111142640351883  1.0000
  C   C6        1.0  0.3283921843959847  0.5373173764134033  0.5492975729545422  1.0000
  C   C7        1.0  0.26986448694656273  0.5824572544687676  0.6326534298834123  1.0000
  C   C8        1.0  0.19418397158439743  0.6030706151487746  0.5683803765056141  1.0000
  N   N2        1.0  0.13334971431367482  0.6196366731009351  0.5167049886939874  1.0000
  C   C9        1.0  0.2850977000641376  0.6079098794476991  0.7783910180744382  1.0000
  C   C10       1.0  0.35856735131746503  0.5883834160634693  0.8406390439050762  1.0000
  C   C11       1.0  0.41708305948008567  0.5434480222360816  0.7577916600967054  1.0000
  C   C12       1.0  0.4497381548346808  0.3621508122818855  0.42399714779162156  1.0000
  C   C13       1.0  0.5082530635208031  0.31712117632258763  0.34120523216116205  1.0000
  C   C14       1.0  0.5823076026243058  0.37846811609253583  0.3559537452177348  1.0000
  H   H1        1.0  0.5521906310934688  0.614863796185005  0.6112778968947743  1.0000
  H   H2        1.0  0.3162864366265853  0.5196857220443709  0.4360415524988055  1.0000
  H   H3        1.0  0.24023455163527913  0.6427890412999111  0.8437753963988346  1.0000
  H   H4        1.0  0.3701701045608023  0.6077413872947324  0.9534858942611485  1.0000
  H   H5        1.0  0.4733277608148232  0.5272518049940483  0.8089039053983145  1.0000
  H   H6        1.0  0.3930113208374099  0.31169457020124547  0.4120320196363818  1.0000
  H   H7        1.0  0.49619051954604404  0.23417936844441511  0.2657030611123634  1.0000
  H   H8        1.0  0.6271638305563482  0.3426280716540431  0.2911337241876262  1.0000
  C   C15       1.0  0.9322223935608106  0.18627232992955478  0.497442847381083  1.0000
  C   C16       1.0  0.9435616925027019  0.26908101026296083  0.3669873172450535  1.0000
  C   C17       1.0  0.961576572493713  0.20350911498412194  0.24230377532298153  1.0000
  C   C18       1.0  0.9686813706373621  0.05395427020609778  0.24568879994320533  1.0000
  C   C19       1.0  0.9563663796929672  0.9694952358130076  0.37369345079677885  1.0000
  C   C20       1.0  0.9368775870328622  0.033390585982439935  0.4998938867862561  1.0000
  C   C21       1.0  0.9877547352542323  0.9866471254976984  0.11707236118579312  1.0000
  C   C22       1.0  0.003724537398878565  0.93027899495266  0.009392937787545904  1.0000
  H   H9        1.0  0.9437367651298562  0.2665564799519782  0.8526589893666807  1.0000
  H   H10       1.0  0.9707155256248129  0.26979705761216577  0.14348732864653568  1.0000
  H   H11       1.0  0.9416850136110461  0.7372649112430535  0.7389563701522894  1.0000
  H   H12       1.0  0.017742597631773997  0.8807979159340412  0.9148730104699414  1.0000
  C   C23       1.0  0.9357858710653595  0.6060733762532147  0.07549603691985007  1.0000
  C   C24       1.0  0.9989505490823959  0.6700932274614029  0.14994838510308228  1.0000
  C   C25       1.0  0.057822559736597785  0.7446690934947078  0.07565348017346318  1.0000
  C   C26       1.0  0.05374098939396487  0.7555968406951974  0.923869084627734  1.0000
  C   C27       1.0  0.9921833578647655  0.6907830858085793  0.8482183011487461  1.0000
  C   C28       1.0  0.933314111110565  0.6135894852148478  0.9218406378761993  1.0000
  O   O1        1.0  0.11888224449462248  0.8068097657338174  0.15654343646889135  1.0000
  C   C29       1.0  0.18247771269091503  0.8858335900912024  0.09542069864216507  1.0000
  H   H13       1.0  0.7528105654742889  0.508487812495559  0.1696944836700114  1.0000
  H   H14       1.0  0.0018426525683186148  0.6652085222759005  0.26713277975945804  1.0000
  H   H15       1.0  0.09823933388587272  0.8128538486213318  0.8631174643041319  1.0000
  H   H16       1.0  0.8112593314799748  0.5422288394132899  0.6351639053454381  1.0000
  H   H17       1.0  0.16241969823396474  0.9824252963863962  0.029438403698855083  1.0000
  H   H18       1.0  0.21407404508274208  0.8158255351017212  0.027704265756030688  1.0000
  H   H19       1.0  0.22194027245953415  0.9222460776999577  0.1839283833228298  1.0000
  Zn  Zn1       1.0  0.850483699890981  0.6056891780452713  0.491040672780219  1.0000
  Zn  Zn2       1.0  0.01860895195259206  0.6139726753869497  0.5062946955794314  1.0000
  C   C30       1.0  0.933748051227625  0.6064226293979427  0.7618466247649505  1.0000
  C   C31       1.0  0.9353464461265089  0.6132411356670693  0.23548905687238017  1.0000
  C   C32       1.0  0.936010493542881  0.8732160110305361  0.49368775839798373  1.0000
  C   C33       1.0  0.9330839366943708  0.3464460189512311  0.5036479898483839  1.0000
  O   O2        1.0  0.9990015934879677  0.6187839526606216  0.2949729798713252  1.0000
  O   O3        1.0  0.9976960752592837  0.6071657034138678  0.7139397341434157  1.0000
  O   O4        1.0  0.9995221615749381  0.822604704075435  0.4973994785857289  1.0000
  O   O5        1.0  0.9971754501748091  0.4033449585310287  0.5115131222053997  1.0000
  O   O6        1.0  0.8719171442958977  0.816316892075944  0.4858222409412258  1.0000
  O   O7        1.0  0.8700910677242585  0.6008796236723727  0.7023624246768512  1.0000
  O   O8        1.0  0.8713965907876591  0.6124978072720877  0.2833939377117949  1.0000
  O   O9        1.0  0.8695704470991381  0.3970588037852725  0.49993418805645745  1.0000
