data_image0
_chemical_formula_structural       NC8NC6H8C6NO2H5C7NC2NH8Zn2C4O8
_chemical_formula_sum              "N5 C33 H21 O10 Zn2"
_cell_length_a       17.457602349358154
_cell_length_b       9.273392599741051
_cell_length_c       9.27399911348925
_cell_angle_alpha    85.18319751875556
_cell_angle_beta     92.55204972901187
_cell_angle_gamma    91.0881455882028

_space_group_name_H-M_alt    "P 1"
_space_group_IT_number       1

loop_
  _space_group_symop_operation_xyz
  'x, y, z'

loop_
  _atom_site_type_symbol
  _atom_site_label
  _atom_site_symmetry_multiplicity
  _atom_site_fract_x
  _atom_site_fract_y
  _atom_site_fract_z
  _atom_site_occupancy
  N   N1        1.0  0.7182055808653639  0.6264964168850993  0.4766308642973338  1.0000
  C   C1        1.0  0.6574457649232386  0.575613446060058  0.4647516757764143  1.0000
  C   C2        1.0  0.581857903167721  0.512321280688075  0.4499845774934225  1.0000
  C   C3        1.0  0.5228267451384966  0.5561728067418434  0.5332745525302507  1.0000
  C   C4        1.0  0.4486618665682515  0.4952263479106933  0.5191940289878878  1.0000
  C   C5        1.0  0.3860109289314524  0.5415247525067881  0.6074010362562501  1.0000
  C   C6        1.0  0.31154158799721093  0.5625778358747133  0.5454781483256506  1.0000
  C   C7        1.0  0.25251118669880024  0.6062240999652038  0.6288877286821462  1.0000
  C   C8        1.0  0.1766075472407423  0.6279716277448315  0.5645044351293622  1.0000
  N   N2        1.0  0.11559397625660792  0.6454495556727562  0.5127404232072275  1.0000
  C   C9        1.0  0.26745473296706823  0.6290822173265764  0.7747856397370558  1.0000
  C   C10       1.0  0.34113565766393134  0.608457182409462  0.8371398892642328  1.0000
  C   C11       1.0  0.4001517841874061  0.5650063138522239  0.7542391977444387  1.0000
  C   C12       1.0  0.4348258480123123  0.3896903786440684  0.42023021905232816  1.0000
  C   C13       1.0  0.49384221015629853  0.34614431331653117  0.3373851857820944  1.0000
  C   C14       1.0  0.5672197531973678  0.40721012095152276  0.3520769455068278  1.0000
  H   H1        1.0  0.5344815423521793  0.6389997623971712  0.6074438051807474  1.0000
  H   H2        1.0  0.29963727333655904  0.5469617540789988  0.432094869859497  1.0000
  H   H3        1.0  0.22220308856572607  0.6627899546131709  0.8402128151027397  1.0000
  H   H4        1.0  0.352517978826562  0.6258062973029717  0.9501113151588705  1.0000
  H   H5        1.0  0.4565717588687738  0.5479081040963136  0.8054388662878254  1.0000
  H   H6        1.0  0.37865581505537654  0.33946242961398454  0.40831198649153455  1.0000
  H   H7        1.0  0.48269846857423393  0.2645686813097212  0.26188657392424863  1.0000
  H   H8        1.0  0.6124750309139552  0.37253178881271776  0.2872160638179191  1.0000
  C   C15       1.0  0.9192437185172315  0.21256399855165853  0.49399103590641347  1.0000
  C   C16       1.0  0.9098845788734088  0.29660028523584847  0.3612976603259468  1.0000
  C   C17       1.0  0.8937438278335414  0.23182974548737453  0.23277205938671486  1.0000
  C   C18       1.0  0.8864258497307754  0.08105399608916652  0.23334695027782007  1.0000
  C   C19       1.0  0.8969841725134267  0.9959152090363692  0.36514283766430133  1.0000
  C   C20       1.0  0.9145631915065926  0.05937105239692463  0.4953933466206495  1.0000
  N   N3        1.0  0.8691049414183827  0.014846218270169412  0.1004820203090242  1.0000
  O   O1        1.0  0.8594378810643237  0.0985875831026992  0.9714687074430307  1.0000
  O   O2        1.0  0.8623518500549134  0.8805888986861734  0.10009880236308266  1.0000
  H   H9        1.0  0.9025385379955594  0.2851948456415472  0.8467072651646559  1.0000
  H   H10       1.0  0.9132497947471542  0.4136399099350734  0.35733922603162016  1.0000
  H   H11       1.0  0.8862140216036957  0.3002427069683531  0.13289102223567628  1.0000
  H   H12       1.0  0.8932773282948016  0.8791274115295273  0.3658333844974764  1.0000
  H   H13       1.0  0.905925325281807  0.7588110126020818  0.7340143297135309  1.0000
  C   C21       1.0  0.9182073631891656  0.639720862063391  0.07096726622854654  1.0000
  C   C22       1.0  0.9787810124663451  0.5735501725283396  0.15480693916575428  1.0000
  C   C23       1.0  0.0343356584332666  0.49687255817141174  0.0910317012774009  1.0000
  C   C24       1.0  0.03081314434308413  0.4836981018034141  0.9413871616062695  1.0000
  C   C25       1.0  0.971380065887596  0.5523587552520284  0.8560977403625811  1.0000
  C   C26       1.0  0.9155995440936491  0.6322142259072736  0.9184171035324383  1.0000
  C   C27       1.0  0.09013675324259206  0.4002716764583447  0.875896063942641  1.0000
  N   N4        1.0  0.15462661814343703  0.3529556234889457  0.9496861630074882  1.0000
  C   C28       1.0  0.19214516148129243  0.2825819090798516  0.8536166615370959  1.0000
  C   C29       1.0  0.15022083865630861  0.2877700423788996  0.7242805481210293  1.0000
  N   N5        1.0  0.08606523671237244  0.361720693846842  0.7384501382829121  1.0000
  H   H14       1.0  0.8355784650581277  0.8178191298376578  0.3304289803432643  1.0000
  H   H15       1.0  0.9822307772063089  0.578006535269856  0.2712808220328782  1.0000
  H   H16       1.0  0.07959689495341493  0.4459010226055986  0.15975754804172415  1.0000
  H   H17       1.0  0.9695048906324004  0.5483669909818576  0.7398139322781327  1.0000
  H   H18       1.0  0.7955107609127821  0.7078856367866841  0.6219184673709157  1.0000
  H   H19       1.0  0.24669126691608434  0.23029194505565553  0.8768231156824245  1.0000
  H   H20       1.0  0.1652052195874214  0.24032704474792932  0.6268455496689644  1.0000
  H   H21       1.0  0.04256495215764567  0.3815064187530504  0.6588391558354867  1.0000
  Zn  Zn1       1.0  0.8328832834801438  0.6319619429132741  0.4870596278579864  1.0000
  Zn  Zn2       1.0  0.0009162883800848386  0.6399721034209578  0.5023234534788785  1.0000
  C   C30       1.0  0.9161225150639396  0.6278890573961882  0.7582213051624602  1.0000
  C   C31       1.0  0.917678881220171  0.6440468944069364  0.23116208749092396  1.0000
  C   C32       1.0  0.9154616561641838  0.8993572648324346  0.4893780036571329  1.0000
  C   C33       1.0  0.9183396921201766  0.3725769512535524  0.5000054578475119  1.0000
  O   O3        1.0  0.9812692022599884  0.6485322742436408  0.29071746476241844  1.0000
  O   O4        1.0  0.980065364014425  0.62948211999947  0.7102504011884887  1.0000
  O   O5        1.0  0.9795308478597688  0.8486960764201026  0.49315745750735007  1.0000
  O   O6        1.0  0.9818036613522787  0.4293183263623448  0.5078102950627257  1.0000
  O   O7        1.0  0.8519958531665467  0.8426157172400499  0.48157278105775775  1.0000
  O   O8        1.0  0.8525303599795496  0.6234034938047172  0.6986656506712543  1.0000
  O   O9        1.0  0.8537342038922932  0.6424536131734095  0.2791309793518755  1.0000
  O   O10       1.0  0.8542686627055462  0.4232396540209394  0.4962239178166332  1.0000
