data_image0
_chemical_formula_structural       NC6NC2H4C10H5C9H6Zn2C4O8
_chemical_formula_sum              "N2 C31 H15 Zn2 O8"
_cell_length_a       14.927258858638513
_cell_length_b       9.275150299802178
_cell_length_c       9.275153671780862
_cell_angle_alpha    85.37735250896073
_cell_angle_beta     89.40940071634567
_cell_angle_gamma    89.48389287567745

_space_group_name_H-M_alt    "P 1"
_space_group_IT_number       1

loop_
  _space_group_symop_operation_xyz
  'x, y, z'

loop_
  _atom_site_type_symbol
  _atom_site_label
  _atom_site_symmetry_multiplicity
  _atom_site_fract_x
  _atom_site_fract_y
  _atom_site_fract_z
  _atom_site_occupancy
  N   N1        1.0  0.8449974797565986  0.5749703725767421  0.4005682227316951  1.0000
  C   C1        1.0  0.7674709886795571  0.5749703440796687  0.4005682334846885  1.0000
  C   C2        1.0  0.6710384808150589  0.574970459108791  0.4005681829596752  1.0000
  C   C3        1.0  0.6249313119625881  0.5509430930475729  0.27398650215403597  1.0000
  C   C4        1.0  0.5312200013333093  0.550943118354638  0.27398636851864433  1.0000
  C   C5        1.0  0.48322241769154234  0.5749702815160405  0.4005682026007331  1.0000
  C   C6        1.0  0.38678984283552975  0.5749703965481137  0.40056815206977747  1.0000
  N   N2        1.0  0.3092633517584878  0.5749703680510403  0.4005681628227711  1.0000
  C   C7        1.0  0.5293295195524993  0.5989976475802092  0.52714988340043  1.0000
  C   C8        1.0  0.623040830181778  0.5989976222731443  0.5271500170358214  1.0000
  H   H1        1.0  0.66136293296859  0.5322484472398679  0.17549868947938818  1.0000
  H   H2        1.0  0.49625927639018536  0.5322486448654398  0.17549868342223784  1.0000
  H   H3        1.0  0.49289796489776  0.6176922833419844  0.6256378042445065  1.0000
  H   H4        1.0  0.6580015538747511  0.6176921934225994  0.6256378116351802  1.0000
  C   C9        1.0  0.07948291995272316  0.1512709930923395  0.40298214151643563  1.0000
  C   C10       1.0  0.1272940733006589  0.23304443113549908  0.29389357562362495  1.0000
  C   C11       1.0  0.16745802483620575  0.1666020881102639  0.17926127198517272  1.0000
  C   C12       1.0  0.16022038879923395  0.01741664489469085  0.17224101798531244  1.0000
  C   C13       1.0  0.11436918902771719  0.9341977109182855  0.2806815421986275  1.0000
  C   C14       1.0  0.07478645354050117  0.9986586281151357  0.39816680339869936  1.0000
  C   C15       1.0  0.21529606623250375  0.2521112929120297  0.06767850715300017  1.0000
  C   C16       1.0  0.25534856488999136  0.3237276633453101  0.9742604760237046  1.0000
  C   C17       1.0  0.30224818386638597  0.4075953852512384  0.8648720357326454  1.0000
  C   C18       1.0  0.3422929605560198  0.47920631927304574  0.7714719121832876  1.0000
  H   H5        1.0  0.1315840294737477  0.34949848466295497  0.2961211243544277  1.0000
  H   H6        1.0  0.1908196608618219  0.9650449426888904  0.08353969997185007  1.0000
  H   H7        1.0  0.1116694550738531  0.8181817509891255  0.2744562683554508  1.0000
  H   H8        1.0  0.014376829155857033  0.8690628090624206  0.7407593896000764  1.0000
  H   H9        1.0  0.3774556144644976  0.5420867990640921  0.6894588893483498  1.0000
  C   C19       1.0  0.07985209982002234  0.5738804605663164  0.9771510079315049  1.0000
  C   C20       1.0  0.10269935359412169  0.7013931278490113  0.040170110769688135  1.0000
  C   C21       1.0  0.11716901910446341  0.8302638737809798  0.9544453990753404  1.0000
  C   C22       1.0  0.10887576349645434  0.83322706873645  0.8044880414019557  1.0000
  C   C23       1.0  0.0877506805516189  0.7073237182100915  0.7398413905263137  1.0000
  C   C24       1.0  0.07441732634630571  0.576049166214309  0.8239979614591975  1.0000
  C   C25       1.0  0.13952931832679724  0.9601500275068762  0.020816375739936006  1.0000
  C   C26       1.0  0.1582515499774717  0.06889285983669469  0.07641012316582585  1.0000
  C   C27       1.0  0.19889296215397634  0.30494796852191275  0.19710722500988798  1.0000
  H   H10       1.0  0.0852886001819273  0.33490622218766686  0.2770454527830095  1.0000
  H   H11       1.0  0.10721777405504712  0.7014661785907412  0.15678508761090537  1.0000
  H   H12       1.0  0.11961865129163289  0.9327022452792992  0.7372160918301351  1.0000
  H   H13       1.0  0.08391629294441244  0.7118412627685375  0.6229840427605149  1.0000
  H   H14       1.0  0.08761330890404101  0.22121040546114412  0.7495155367085209  1.0000
  H   H15       1.0  0.2153294333094098  0.400414834913859  0.24592117834119184  1.0000
  Zn  Zn1       1.0  0.9789745576589666  0.5749665264264545  0.4005765590289716  1.0000
  Zn  Zn2       1.0  0.17528627432987576  0.5749624262025901  0.40057172172278044  1.0000
  C   C28       1.0  0.07547445146823331  0.5698913150261753  0.6639583927775243  1.0000
  C   C29       1.0  0.07878851324052838  0.5800394584204895  0.13719001909878825  1.0000
  C   C30       1.0  0.07570647224098681  0.8384696343518618  0.39333114918395506  1.0000
  C   C31       1.0  0.07855643459439968  0.31145940580299336  0.40781734941844866  1.0000
  O   O1        1.0  0.15293087214433776  0.5820986237332926  0.19089877325808668  1.0000
  O   O2        1.0  0.15032815187008453  0.5678279482074813  0.6102455583290398  1.0000
  O   O3        1.0  0.15051449767056815  0.7847083415599847  0.39171213589410714  1.0000
  O   O4        1.0  0.15274445999259118  0.36521824042671924  0.40943208752358995  1.0000
  O   O5        1.0  0.00151630500473687  0.7847107122052759  0.3917161932222195  1.0000
  O   O6        1.0  0.0013299500861143599  0.5678320521475326  0.6102495289251177  1.0000
  O   O7        1.0  0.003932681824184494  0.5821026729545404  0.1909010105594573  1.0000
  O   O8        1.0  0.0037462690321867793  0.36522227960498777  0.40943443298844734  1.0000
