data_image0
_chemical_formula_structural       NC8NC6H8C12NCOCH12C13F3H9Zn2C4O8
_chemical_formula_sum              "N3 C45 H29 O9 F3 Zn2"
_cell_length_a       17.457602349358154
_cell_length_b       10.299155265289647
_cell_length_c       10.2985328690268
_cell_angle_alpha    85.56203192291568
_cell_angle_beta     92.88104695485512
_cell_angle_gamma    91.66712233072684

_space_group_name_H-M_alt    "P 1"
_space_group_IT_number       1

loop_
  _space_group_symop_operation_xyz
  'x, y, z'

loop_
  _atom_site_type_symbol
  _atom_site_label
  _atom_site_symmetry_multiplicity
  _atom_site_fract_x
  _atom_site_fract_y
  _atom_site_fract_z
  _atom_site_occupancy
  N   N1        1.0  0.7220191572065361  0.4524784043841068  0.6259376922396169  1.0000
  C   C1        1.0  0.6609509311767279  0.40654707955552744  0.6153355753191416  1.0000
  C   C2        1.0  0.5849794742296561  0.3494142292410507  0.6021560827991645  1.0000
  C   C3        1.0  0.5264461473423376  0.38960243278031204  0.677047147688379  1.0000
  C   C4        1.0  0.45191233262918246  0.3345881668841446  0.6644814756525669  1.0000
  C   C5        1.0  0.3897878607897532  0.3770210672714907  0.7437939940146094  1.0000
  C   C6        1.0  0.31523382535148564  0.3954727059447809  0.6880201759545226  1.0000
  C   C7        1.0  0.2567005431893748  0.43547700772204606  0.7630192611433819  1.0000
  C   C8        1.0  0.1807080882938345  0.4545338259134284  0.705029612846675  1.0000
  N   N2        1.0  0.1196230725074821  0.46984912771417253  0.6584060886851444  1.0000
  C   C9        1.0  0.2722291085017393  0.45727298945234285  0.8943006463891303  1.0000
  C   C10       1.0  0.345998374909216  0.43921048450300426  0.9504619712927042  1.0000
  C   C11       1.0  0.404520038133455  0.3993863942056715  0.8759205875871863  1.0000
  C   C12       1.0  0.43720056008469743  0.23870777929851172  0.5755919169267187  1.0000
  C   C13       1.0  0.4957221293096653  0.19879840025446915  0.5011007998191835  1.0000
  C   C14       1.0  0.5694711848825856  0.25392522444890364  0.5142164305690888  1.0000
  H   H1        1.0  0.5387771392386688  0.4648225361386462  0.7436595470788288  1.0000
  H   H2        1.0  0.3028862942955584  0.3804688851515696  0.585992191102219  1.0000
  H   H3        1.0  0.22736459573450135  0.4881764175147842  0.9531314968473212  1.0000
  H   H4        1.0  0.3578318233421751  0.4557719381819121  0.05211617501793652  1.0000
  H   H5        1.0  0.4610116850184298  0.3844084589973348  0.9220354755407599  1.0000
  H   H6        1.0  0.38072547748401  0.19336614586080164  0.564953494512868  1.0000
  H   H7        1.0  0.48390462709125587  0.12469444075345715  0.4332896310774789  1.0000
  H   H8        1.0  0.614335966524152  0.22215221071993166  0.4558970201225525  1.0000
  C   C15       1.0  0.9209104771949893  0.07977020458098093  0.6422979022363697  1.0000
  C   C16       1.0  0.9077972533391093  0.08886695680766456  0.5062924686684585  1.0000
  C   C17       1.0  0.9010742627047674  0.9763382455711765  0.43721104851959786  1.0000
  C   C18       1.0  0.9076137941485575  0.8535991027461235  0.5059696810618529  1.0000
  C   C19       1.0  0.9207391131970424  0.8425476635360636  0.6420576985867186  1.0000
  C   C20       1.0  0.9273100635801717  0.9561468831534584  0.7093842732260655  1.0000
  C   C21       1.0  0.887203002344453  0.9869352217050051  0.2933337997107288  1.0000
  C   C22       1.0  0.9261065304960039  0.08272739127703212  0.21508738711634276  1.0000
  C   C23       1.0  0.9130590733547184  0.09256924248306042  0.07968982507677834  1.0000
  C   C24       1.0  0.8613242350496491  0.00595412256048289  0.019710697300078232  1.0000
  C   C25       1.0  0.8214835695239106  0.9119372811121852  0.09781241890275671  1.0000
  C   C26       1.0  0.8345589672287561  0.9018406227390782  0.23317492450102084  1.0000
  N   N3        1.0  0.8458076591880512  0.015486177622544567  0.8808729524291006  1.0000
  C   C27       1.0  0.9018207697867856  0.054847646835835644  0.7872224071100743  1.0000
  O   O1        1.0  0.9722046200473259  0.06046320896576863  0.8208303237081788  1.0000
  C   C28       1.0  0.8773375063038876  0.08019348311028551  0.6466735401555144  1.0000
  H   H9        1.0  0.901724311888441  0.1836350367912014  0.4539832969564723  1.0000
  H   H10       1.0  0.903483742143021  0.7666077011030633  0.45300029775699313  1.0000
  H   H11       1.0  0.937427149881619  0.9484156156914367  0.8142878717422949  1.0000
  H   H12       1.0  0.9459718562325137  0.6144253734808862  0.8988233993744402  1.0000
  H   H13       1.0  0.9670761598813163  0.1495747088586208  0.25852809143377065  1.0000
  H   H14       1.0  0.9424879253455717  0.16929712337459257  0.022508396475673594  1.0000
  H   H15       1.0  0.7804402633309271  0.8457905992118826  0.05349860167104991  1.0000
  H   H16       1.0  0.8026649318263639  0.8286215781100196  0.2909880514188141  1.0000
  H   H17       1.0  0.7917694309941808  0.9842497370323446  0.8453845702875693  1.0000
  H   H18       1.0  0.8219565916383821  0.13121864105971226  0.6376971755522072  1.0000
  H   H19       1.0  0.8702355793161214  0.9862633650839908  0.6008663704944035  1.0000
  H   H20       1.0  0.9210094837321633  0.14218020506569173  0.5948406446574737  1.0000
  C   C29       1.0  0.9208027591170851  0.4610359994508315  0.26077856246438946  1.0000
  C   C30       1.0  0.9977417399491888  0.4235029390471561  0.26928664916018924  1.0000
  C   C31       1.0  0.036727271218595765  0.4046033303238079  0.1564268676624303  1.0000
  C   C32       1.0  0.9977869749120852  0.4237605510688276  0.033989590727525824  1.0000
  C   C33       1.0  0.9208468012268407  0.4612818536552916  0.02357706087032918  1.0000
  C   C34       1.0  0.8828460474418277  0.4796747941003594  0.13750911974731994  1.0000
  C   C35       1.0  0.11807009292494475  0.3649341215475881  0.16635637559748107  1.0000
  C   C36       1.0  0.17103239297490713  0.421852476018365  0.07912343002385636  1.0000
  C   C37       1.0  0.24758687051268582  0.3846205595483059  0.08848988222293541  1.0000
  C   C38       1.0  0.27257247293955594  0.2883088237948166  0.1840306008899082  1.0000
  C   C39       1.0  0.2200538604282154  0.23322903364377703  0.2728765655258334  1.0000
  C   C40       1.0  0.14350436954893087  0.27049422540098805  0.2636214317160179  1.0000
  C   C41       1.0  0.35576198056864067  0.25165370198624304  0.19711934326992056  1.0000
  F   F1        1.0  0.39508929611401045  0.3326923097904644  0.2797919786517671  1.0000
  F   F2        1.0  0.3884325497604609  0.26425502597290706  0.07692670428659865  1.0000
  F   F3        1.0  0.36289579194306065  0.12383473525864265  0.24762597705484768  1.0000
  H   H21       1.0  0.7755627452446869  0.5327844924363954  0.45197505475944855  1.0000
  H   H22       1.0  0.02778932006347779  0.4106550756715837  0.36382354269043393  1.0000
  H   H23       1.0  0.027255142587356836  0.4076651557555222  0.9467704423696781  1.0000
  H   H24       1.0  0.8235474044198536  0.5085970054527262  0.13021862616843835  1.0000
  H   H25       1.0  0.7753173611364989  0.5314340489038043  0.796621142491095  1.0000
  H   H26       1.0  0.15353253922849966  0.49685781916933847  0.0049426339421441085  1.0000
  H   H27       1.0  0.2873518643418156  0.43158747874476994  0.021238402036464207  1.0000
  H   H28       1.0  0.23816642749902006  0.16114220932001144  0.3495494164482327  1.0000
  H   H29       1.0  0.10401548954526274  0.22449346678979776  0.33191485349910343  1.0000
  Zn  Zn1       1.0  0.8367590596929807  0.4574877393968182  0.6353148702594371  1.0000
  Zn  Zn2       1.0  0.004883158777750248  0.4648291476163711  0.6490395473914772  1.0000
  C   C42       1.0  0.9208379293373141  0.4560612756960461  0.8793932930799632  1.0000
  C   C43       1.0  0.9208061246825029  0.46625733025226834  0.40496140140457015  1.0000
  C   C44       1.0  0.9207672355659459  0.6983646177978131  0.6369272074804122  1.0000
  C   C45       1.0  0.9208767614394765  0.22395242526370907  0.6474275520563391  1.0000
  O   O2        1.0  0.9846094748866966  0.47079001661623937  0.45855892450844205  1.0000
  O   O3        1.0  0.9846368804101745  0.45709956839541666  0.8362121087846554  1.0000
  O   O4        1.0  0.9845789342892948  0.6527625443648593  0.6404189585366697  1.0000
  O   O5        1.0  0.9846673636304991  0.27512704740111316  0.6543519726877873  1.0000
  O   O6        1.0  0.8569747974677274  0.6471898371082259  0.6300024402727359  1.0000
  O   O7        1.0  0.8570327432304975  0.4515284215217239  0.8257955207781137  1.0000
  O   O8        1.0  0.8570053376780485  0.4652188239826214  0.44814077499545424  1.0000
  O   O9        1.0  0.857063226426424  0.2695558455093281  0.6439339205530494  1.0000
