data_image0
_chemical_formula_structural       NC6NCNCH5C7NH3C9H8Zn2C4O8
_chemical_formula_sum              "N4 C28 H16 Zn2 O8"
_cell_length_a       14.933214217465613
_cell_length_b       9.275154477615127
_cell_length_c       9.275155815604963
_cell_angle_alpha    86.28252252333478
_cell_angle_beta     90.32327604629522
_cell_angle_gamma    89.46799387830556

_space_group_name_H-M_alt    "P 1"
_space_group_IT_number       1

loop_
  _space_group_symop_operation_xyz
  'x, y, z'

loop_
  _atom_site_type_symbol
  _atom_site_label
  _atom_site_symmetry_multiplicity
  _atom_site_fract_x
  _atom_site_fract_y
  _atom_site_fract_z
  _atom_site_occupancy
  N   N1        1.0  0.8274844817863223  0.5651046832676524  0.415596926819304  1.0000
  C   C1        1.0  0.7499843316602292  0.5660926712641985  0.41461050106496644  1.0000
  C   C2        1.0  0.6535735599842991  0.5673244387941743  0.41338054953930525  1.0000
  C   C3        1.0  0.6066995014849811  0.47239695638485046  0.5081773760594328  1.0000
  C   C4        1.0  0.5131553305672831  0.4734703818919826  0.5071054577652141  1.0000
  C   C5        1.0  0.4655834087087463  0.5694169011703321  0.4112910339066149  1.0000
  C   C6        1.0  0.3690288078740423  0.5673265772794036  0.4133784875215029  1.0000
  N   N2        1.0  0.2915606221962768  0.5655827821276971  0.41511951186595725  1.0000
  C   C7        1.0  0.512544233491544  0.6655430599327468  0.31529730997209504  1.0000
  N   N3        1.0  0.4662341907146516  0.7652683539932585  0.21570954912537  1.0000
  C   C8        1.0  0.6065783507226239  0.6635119323790681  0.31732575920209327  1.0000
  H   H1        1.0  0.6424463628844119  0.3975530202317011  0.582918255541735  1.0000
  H   H2        1.0  0.4778148826265059  0.3992560434887753  0.581217477232212  1.0000
  H   H3        1.0  0.5018846252056574  0.8357039378937476  0.1453708699754392  1.0000
  H   H4        1.0  0.3964395935289272  0.7705745906409086  0.2104106878570322  1.0000
  H   H5        1.0  0.6430507099678552  0.7369795510312025  0.24395926607495674  1.0000
  C   C9        1.0  0.06211173964343056  0.14194272427108742  0.413687744047649  1.0000
  C   C10       1.0  0.0370462083795815  0.2240017490514499  0.28663581742478117  1.0000
  C   C11       1.0  0.004722724270316504  0.15689375086773288  0.1663228525726166  1.0000
  C   C12       1.0  0.9969347081173271  0.00681096236291335  0.17164502196720366  1.0000
  C   C13       1.0  0.022819111696722915  0.9235201638020863  0.29579947103335014  1.0000
  C   C14       1.0  0.056942044375483586  0.9887337467865727  0.41704118413712665  1.0000
  C   C15       1.0  0.9784599913441671  0.2425201662403622  0.03774053967556235  1.0000
  N   N4        1.0  0.9573520284540729  0.3113481893183139  0.93439329560666  1.0000
  H   H6        1.0  0.08082746511326767  0.2216794061382683  0.7674508874031638  1.0000
  H   H7        1.0  0.9716149362092678  0.9538618609083728  0.07917744304423689  1.0000
  H   H8        1.0  0.0733393866828571  0.6920215304561269  0.654068585029326  1.0000
  C   C16       1.0  0.057908422476479225  0.561692087515437  0.9921204627779732  1.0000
  C   C17       1.0  0.987427319096746  0.6318744385914747  0.06028560998285526  1.0000
  C   C18       1.0  0.9228856322618536  0.711645324606849  0.9793828943349956  1.0000
  C   C19       1.0  0.9276269556596174  0.7229044325171843  0.8288407167199886  1.0000
  C   C20       1.0  0.9963107842086711  0.6519455635897773  0.7589659906370718  1.0000
  C   C21       1.0  0.0611453384721452  0.5689843155024508  0.8386083775348538  1.0000
  C   C22       1.0  0.8612546030602116  0.8060419459016432  0.7456405842961695  1.0000
  C   C23       1.0  0.8056796924446593  0.8756582627894491  0.6759451828391606  1.0000
  C   C24       1.0  0.7382495272255349  0.9601258931666488  0.5913701201361614  1.0000
  H   H9        1.0  0.2664668631688363  0.44557813654573986  0.10440383179724666  1.0000
  H   H10       1.0  0.9834286306387455  0.6278735503128332  0.17706545892370484  1.0000
  H   H11       1.0  0.8697112986961281  0.7657830743894902  0.0344648901725757  1.0000
  H   H12       1.0  0.9979239247056334  0.658727143772893  0.641844841894136  1.0000
  H   H13       1.0  0.20033957063811617  0.485630448807372  0.5645526734935755  1.0000
  H   H14       1.0  0.7564209896094131  0.9642872471480904  0.47536881908963696  1.0000
  H   H15       1.0  0.671869772502522  0.9087142597887032  0.6062616819967954  1.0000
  H   H16       1.0  0.7353035872854713  0.07145528273620673  0.6283180651100263  1.0000
  Zn  Zn1       1.0  0.9614068873978251  0.5652388552931068  0.4154674716555088  1.0000
  Zn  Zn2       1.0  0.15763831939509743  0.5654368837296284  0.4152607561060362  1.0000
  C   C25       1.0  0.060566574413239566  0.5618620723234973  0.6785813270907377  1.0000
  C   C26       1.0  0.05848076465534981  0.568815489298476  0.15214704708032767  1.0000
  C   C27       1.0  0.057892651012598134  0.8286227160745483  0.41066386591296644  1.0000
  C   C28       1.0  0.061154631965345804  0.30205311387232703  0.4200645783098058  1.0000
  O   O1        1.0  0.13314169209513327  0.5712750285851325  0.20577495824947828  1.0000
  O   O2        1.0  0.13484076842705428  0.5595517407624186  0.6247961044001056  1.0000
  O   O3        1.0  0.1326805433203322  0.7749643461376376  0.40845086593304314  1.0000
  O   O4        1.0  0.13530184976515014  0.35586243252550687  0.4221200887613239  1.0000
  O   O5        1.0  0.9837432900635767  0.7748133064311554  0.4086081390631878  1.0000
  O   O6        1.0  0.9859035042967489  0.5594024326649607  0.6249533075415104  1.0000
  O   O7        1.0  0.984204421704797  0.5711256553159256  0.20593042834626463  1.0000
  O   O8        1.0  0.9863645798473241  0.35571304987463326  0.4222756668762942  1.0000
