data_image0
_chemical_formula_structural       NC10NC5H10C7OC4NC3H8C7OC3FC3H8Zn2C4O8
_chemical_formula_sum              "N3 C46 H26 O10 F1 Zn2"
_cell_length_a       19.4436361288709
_cell_length_b       10.299371701877257
_cell_length_c       10.29938172300155
_cell_angle_alpha    85.59571719418345
_cell_angle_beta     89.68829794462899
_cell_angle_gamma    89.42830201241743

_space_group_name_H-M_alt    "P 1"
_space_group_IT_number       1

loop_
  _space_group_symop_operation_xyz
  'x, y, z'

loop_
  _atom_site_type_symbol
  _atom_site_label
  _atom_site_symmetry_multiplicity
  _atom_site_fract_x
  _atom_site_fract_y
  _atom_site_fract_z
  _atom_site_occupancy
  N   N1        1.0  0.647994325028948  0.4089376084648046  0.562622717950727  1.0000
  C   C1        1.0  0.5891579652129311  0.4188406483044053  0.5770104106535756  1.0000
  C   C2        1.0  0.5158281470060274  0.43119107083910596  0.5950073645261911  1.0000
  C   C3        1.0  0.47365021671823376  0.3991865821758109  0.5003216095070353  1.0000
  C   C4        1.0  0.39774599030717633  0.40962527638371893  0.5056536073876233  1.0000
  C   C5        1.0  0.3579943891827119  0.3848860883857097  0.6127167530767597  1.0000
  C   C6        1.0  0.2818754175998148  0.38880165091258684  0.5997588439267706  1.0000
  C   C7        1.0  0.24130882478663332  0.4464704045855445  0.6935511852310179  1.0000
  C   C8        1.0  0.1696467501515633  0.4501072974028396  0.683008649885867  1.0000
  C   C9        1.0  0.1375564499479343  0.3956794492384583  0.578960151152689  1.0000
  C   C10       1.0  0.0637651508281494  0.39937757262751833  0.5682623567975897  1.0000
  N   N2        1.0  0.004441951319752398  0.4023506697903141  0.5596620394064877  1.0000
  C   C11       1.0  0.1773980519415625  0.33730363774386984  0.4855507792081407  1.0000
  C   C12       1.0  0.2490765746157363  0.3336125007720674  0.49584151673379906  1.0000
  C   C13       1.0  0.3861111132552993  0.3444359926967542  0.7437961954575858  1.0000
  C   C14       1.0  0.4447740837964614  0.3875615584370387  0.7910548976766547  1.0000
  C   C15       1.0  0.48899735334205363  0.4854134955451494  0.7167242276938026  1.0000
  H   H1        1.0  0.4957552129872094  0.3700622933325506  0.41000384428773573  1.0000
  H   H2        1.0  0.3730584484461821  0.4321123762927983  0.4125037004455039  1.0000
  H   H3        1.0  0.2651754656778625  0.48976768066210113  0.774415783724906  1.0000
  H   H4        1.0  0.1392990608739328  0.495427656126778  0.7559465426196836  1.0000
  H   H5        1.0  0.1530595142403808  0.29420204553126056  0.4050207372235937  1.0000
  H   H6        1.0  0.2787583798663351  0.28604881514566705  0.423599114119946  1.0000
  H   H7        1.0  0.3551337611410424  0.2802242768192249  0.8080189805421494  1.0000
  H   H8        1.0  0.4599116329534765  0.3535023086846348  0.8889765424846383  1.0000
  H   H9        1.0  0.4588989024772623  0.576125466370303  0.6915064025597035  1.0000
  H   H10       1.0  0.5322787368302418  0.5110044902941893  0.7798188267609065  1.0000
  C   C16       1.0  0.826185471093473  0.0242742797367319  0.5610156823090128  1.0000
  C   C17       1.0  0.8295480844499514  0.03351787723257593  0.4243261879646308  1.0000
  C   C18       1.0  0.8304631306668435  0.9210255949460613  0.35532788566456297  1.0000
  C   C19       1.0  0.8295565441266478  0.7982494867955964  0.42464350584141003  1.0000
  C   C20       1.0  0.8262573817229049  0.7870038770726195  0.5612802906161745  1.0000
  C   C21       1.0  0.8244099779002289  0.9006206603709389  0.6286614723289802  1.0000
  C   C22       1.0  0.8347361414947628  0.93062910552567  0.21104592073945927  1.0000
  O   O1        1.0  0.8678475757424988  0.8442562714677764  0.15582636923199256  1.0000
  C   C23       1.0  0.8014347143247587  0.03813670224652332  0.12941233080478654  1.0000
  C   C24       1.0  0.8309098591866195  0.08220544870445323  0.009200163071489742  1.0000
  C   C25       1.0  0.7994219173649878  0.18267027624465837  0.9306728381064953  1.0000
  C   C26       1.0  0.8302317078754298  0.22789784806241187  0.8082634890008218  1.0000
  N   N3        1.0  0.8550014057828881  0.26425121629229764  0.7098640976331787  1.0000
  C   C27       1.0  0.737945490354861  0.23899508562365376  0.9713543201282526  1.0000
  C   C28       1.0  0.7078900046414548  0.1947259891840789  0.0898318006772787  1.0000
  C   C29       1.0  0.7391804696907188  0.09456228239727359  0.1683493685377  1.0000
  H   H11       1.0  0.8322297990565503  0.1283784491428921  0.3714185775291861  1.0000
  H   H12       1.0  0.8307717124610221  0.7113758707895685  0.37162244319632287  1.0000
  H   H13       1.0  0.8218180249743848  0.8926906235788142  0.7340393264502869  1.0000
  H   H14       1.0  0.8255688818340505  0.45521272697286147  0.6138100002568334  1.0000
  H   H15       1.0  0.8786123016997704  0.03922466621153518  0.9772278283494293  1.0000
  H   H16       1.0  0.7131603316423816  0.31665383456819707  0.9113221620915355  1.0000
  H   H17       1.0  0.6600702974201437  0.2377248273605257  0.12065213129641085  1.0000
  H   H18       1.0  0.71431839948594  0.06033502333485141  0.25871000887904727  1.0000
  C   C30       1.0  0.8262793168986172  0.40553687805867983  0.17977980560208096  1.0000
  C   C31       1.0  0.8480325915549881  0.27468017390429117  0.1884150061046268  1.0000
  C   C32       1.0  0.8597515960744319  0.20912209423381234  0.07555554318409352  1.0000
  C   C33       1.0  0.8479668362241992  0.27497452369891295  0.9531496041716512  1.0000
  C   C34       1.0  0.8261635099400714  0.4057412641734412  0.9425161933680647  1.0000
  C   C35       1.0  0.8156192893005154  0.47036650152636306  0.05641827113427622  1.0000
  C   C36       1.0  0.882025381348116  0.07054177700981999  0.0845677904478559  1.0000
  O   O2        1.0  0.8608345260160484  0.9976891251494331  0.0005370750338047311  1.0000
  C   C37       1.0  0.928343824992091  0.014612629303334842  0.1888091381763824  1.0000
  C   C38       1.0  0.9227906817360971  0.8827541438600545  0.23408252637337906  1.0000
  C   C39       1.0  0.9667662757351144  0.8287342710956972  0.3312552369867514  1.0000
  F   F1        1.0  0.9606637318204337  0.7017796221843916  0.37493054092979794  1.0000
  C   C40       1.0  0.017006206661299046  0.9054295999702234  0.383332862401258  1.0000
  C   C41       1.0  0.02354971333976308  0.036064333829338706  0.33798577074413405  1.0000
  C   C42       1.0  0.979710546474405  0.09049345663296758  0.24088304601471205  1.0000
  H   H19       1.0  0.784217827026746  0.6518848003312188  0.3708599394016097  1.0000
  H   H20       1.0  0.8551534220166394  0.22315801623905318  0.28314358186149186  1.0000
  H   H21       1.0  0.8564869475762638  0.22426749599317425  0.8660354537025143  1.0000
  H   H22       1.0  0.7988488126729172  0.5712469743202064  0.04895712221742299  1.0000
  H   H23       1.0  0.8840391864515467  0.8219538633999426  0.19501005732550825  1.0000
  H   H24       1.0  0.051070251476209375  0.8635916098842865  0.45845228378316183  1.0000
  H   H25       1.0  0.06284073203811547  0.09510690330509818  0.37769207481876843  1.0000
  H   H26       1.0  0.9864822563477563  0.19132742507178113  0.20560118161861274  1.0000
  Zn  Zn1       1.0  0.7508574100832874  0.40703329088485196  0.5617758409975447  1.0000
  Zn  Zn2       1.0  0.901578855159107  0.4042443825252151  0.5605195938388882  1.0000
  C   C43       1.0  0.8261833961040118  0.4005289963066196  0.7983408840325867  1.0000
  C   C44       1.0  0.8262545151470128  0.41075028530620306  0.3239546651203581  1.0000
  C   C45       1.0  0.8262410327130943  0.6428304417472448  0.5560551452999237  1.0000
  C   C46       1.0  0.826196826949623  0.16844728052959335  0.5662404729788728  1.0000
  O   O3        1.0  0.883444193833313  0.4114359104610043  0.371864323812962  1.0000
  O   O4        1.0  0.8833878067377973  0.3977256744128306  0.7494773886289308  1.0000
  O   O5        1.0  0.8834335777671207  0.5933871705554763  0.5538299472857512  1.0000
  O   O6        1.0  0.8833983713886273  0.21577442453417062  0.5675116682135563  1.0000
  O   O7        1.0  0.7690378424199359  0.595503249829026  0.5547837670447417  1.0000
  O   O8        1.0  0.768992071545089  0.399843313975494  0.7504311396839354  1.0000
  O   O9        1.0  0.7690484589191018  0.4135535043482821  0.3728165134541942  1.0000
  O   O10       1.0  0.7690026364559474  0.21789200915876594  0.5684639552192391  1.0000
