data_image0
_chemical_formula_structural       NC6NC2H4C6ClH5C7F3H5Zn2C4O8
_chemical_formula_sum              "N2 C25 H14 Cl1 F3 Zn2 O8"
_cell_length_a       14.927258858638513
_cell_length_b       9.276545438789551
_cell_length_c       9.272721663655245
_cell_angle_alpha    85.91497059500672
_cell_angle_beta     90.51617878085045
_cell_angle_gamma    89.40960950127158

_space_group_name_H-M_alt    "P 1"
_space_group_IT_number       1

loop_
  _space_group_symop_operation_xyz
  'x, y, z'

loop_
  _atom_site_type_symbol
  _atom_site_label
  _atom_site_symmetry_multiplicity
  _atom_site_fract_x
  _atom_site_fract_y
  _atom_site_fract_z
  _atom_site_occupancy
  N   N1        1.0  0.8246237081604016  0.5692789586251896  0.4103710682640036  1.0000
  C   C1        1.0  0.7470972172340793  0.5692789301771894  0.410371078839012  1.0000
  C   C2        1.0  0.6506647086758796  0.569279044987121  0.41037102903219935  1.0000
  C   C3        1.0  0.6030592499683  0.544890994376958  0.2836346908826395  1.0000
  C   C4        1.0  0.5093479377183417  0.5448910192726517  0.28363455740111165  1.0000
  C   C5        1.0  0.4628486459240307  0.5692788675597868  0.41037104756245757  1.0000
  C   C6        1.0  0.36641607037424245  0.5692789823726496  0.41037099774972075  1.0000
  N   N2        1.0  0.28888957944792065  0.5692789539246492  0.41037100832472917  1.0000
  C   C7        1.0  0.5104540376400221  0.5936669181728811  0.5371073857060933  1.0000
  C   C8        1.0  0.6041653498899799  0.5936668932771875  0.5371075191876213  1.0000
  H   H1        1.0  0.6383251154559985  0.5259157152746119  0.1850265460683138  1.0000
  H   H2        1.0  0.4732214586533149  0.5259159127629376  0.18502654124779805  1.0000
  H   H3        1.0  0.47518823980741176  0.6126421875559758  0.635715638630634  1.0000
  H   H4        1.0  0.6402918289419829  0.6126420977127744  0.6357156454587977  1.0000
  C   C9        1.0  0.05946331184936971  0.1458424911372962  0.4101333461648309  1.0000
  C   C10       1.0  0.0590536865631095  0.22875888435708558  0.2770400843985783  1.0000
  C   C11       1.0  0.050510120249887436  0.16296041701909972  0.1468436217620075  1.0000
  C   C12       1.0  0.04217994471571254  0.013374211103615027  0.14773738026622296  1.0000
  C   C13       1.0  0.04395794792359187  0.9289059101820472  0.2783877134346435  1.0000
  C   C14       1.0  0.05405872617394469  0.9927044136420206  0.4106212287593205  1.0000
  Cl  Cl1       1.0  0.048889936660675246  0.2686726201275391  0.9822222484235663  1.0000
  H   H5        1.0  0.1065555477872085  0.4100536057438437  0.6368388471369275  1.0000
  H   H6        1.0  0.06323528041471384  0.3454636821181385  0.27418518238690437  1.0000
  H   H7        1.0  0.035178350572405925  0.9620962920803258  0.04700962256959551  1.0000
  H   H8        1.0  0.039563370172532225  0.8126308003709511  0.2757361703331642  1.0000
  H   H9        1.0  0.02533975125200084  0.6952566456743278  0.6437908969911419  1.0000
  C   C15       1.0  0.0544056727635811  0.5669346957025774  0.9869327086590509  1.0000
  C   C16       1.0  0.09328550368635868  0.44899226789749064  0.06958709792145323  1.0000
  C   C17       1.0  0.13996238354061796  0.33962681111946774  0.003619084399728359  1.0000
  C   C18       1.0  0.14502705926525117  0.3462667948881512  0.8524730904086373  1.0000
  C   C19       1.0  0.10563546383818873  0.4612070775817902  0.7688486697014998  1.0000
  C   C20       1.0  0.05911636442483938  0.5716121903503975  0.8338218309667922  1.0000
  C   C21       1.0  0.17911502041214733  0.21214812126346616  0.09389299672129714  1.0000
  F   F1        1.0  0.20901673097602347  0.2540563449017137  0.22615008708827022  1.0000
  F   F2        1.0  0.25090436901017876  0.15250538003606293  0.0247387155658323  1.0000
  F   F3        1.0  0.11400806607884523  0.10835706573251681  0.11686891652601016  1.0000
  H   H10       1.0  0.9954291446730096  0.9103014910340798  0.06334991646585486  1.0000
  H   H11       1.0  0.08884509279644709  0.4438694907097809  0.18642978059613657  1.0000
  H   H12       1.0  0.17867914817002428  0.2615622100299966  0.7985164300551526  1.0000
  H   H13       1.0  0.10947129077279466  0.4616682517568939  0.6521943176262956  1.0000
  H   H14       1.0  0.8968021260779793  0.8148177991472892  0.7126711045644867  1.0000
  Zn  Zn1       1.0  0.9586008889027655  0.5692751395053377  0.4103793807721543  1.0000
  Zn  Zn2       1.0  0.1549125507592547  0.5692710274187089  0.4103745176410729  1.0000
  C   C22       1.0  0.05826058624404842  0.5649836555220118  0.6737383611360199  1.0000
  C   C23       1.0  0.0552549863113663  0.5735643315092106  0.14701567980178964  1.0000
  C   C24       1.0  0.05504371740054761  0.8325977139727652  0.404782860011939  1.0000
  C   C25       1.0  0.058471799651171226  0.30594854106996805  0.415971256807089  1.0000
  O   O1        1.0  0.13003931643112446  0.5757814466219655  0.2007391381363719  1.0000
  O   O2        1.0  0.1324722697640457  0.5627623293455366  0.620010796079097  1.0000
  O   O3        1.0  0.12987361154445587  0.7788640742884301  0.40282732690522716  1.0000
  O   O4        1.0  0.1326379069956268  0.3596797113983236  0.41792249920002633  1.0000
  O   O5        1.0  0.9808754656748057  0.7788664555286542  0.4028313992072763  1.0000
  O   O6        1.0  0.9834741124065031  0.5627664425771801  0.6200147924940036  1.0000
  O   O7        1.0  0.9810411498106271  0.5757855000303496  0.20074140085547842  1.0000
  O   O8        1.0  0.9836397410386294  0.35968375509038675  0.41792487002342416  1.0000
