data_image0
_chemical_formula_structural       NC9NC5H8C12H10C6OCH7Zn2C4O8
_chemical_formula_sum              "N2 C37 H25 O9 Zn2"
_cell_length_a       17.807436237873137
_cell_length_b       10.299137764757564
_cell_length_c       9.273891588657152
_cell_angle_alpha    86.05603520339396
_cell_angle_beta     89.08663702953788
_cell_angle_gamma    88.40860916225229

_space_group_name_H-M_alt    "P 1"
_space_group_IT_number       1

loop_
  _space_group_symop_operation_xyz
  'x, y, z'

loop_
  _atom_site_type_symbol
  _atom_site_label
  _atom_site_symmetry_multiplicity
  _atom_site_fract_x
  _atom_site_fract_y
  _atom_site_fract_z
  _atom_site_occupancy
  N   N1        1.0  0.7123306872559739  0.374622886315223  0.39795552567449155  1.0000
  C   C1        1.0  0.6517720168984492  0.3393297411149252  0.3857337125010065  1.0000
  C   C2        1.0  0.5764436869831545  0.2954289550139038  0.3705311039218686  1.0000
  C   C3        1.0  0.5586774237080326  0.2230465881783128  0.2540132549769363  1.0000
  C   C4        1.0  0.4855377472411527  0.18031004510718776  0.23916083392484144  1.0000
  C   C5        1.0  0.429115648299394  0.20957801633551987  0.3407903929621434  1.0000
  C   C6        1.0  0.35138678336245543  0.16427575453987722  0.32509716717152853  1.0000
  C   C7        1.0  0.2891423264530832  0.2462751924075044  0.3538551038830855  1.0000
  C   C8        1.0  0.215860262295954  0.20333572298341296  0.3390179488402485  1.0000
  C   C9        1.0  0.1525650545124693  0.2880300297503826  0.36817872213472946  1.0000
  N   N2        1.0  0.1016886969778745  0.3561184029219047  0.39162317983666317  1.0000
  C   C10       1.0  0.2042391428172682  0.07813858600408952  0.29539482326012023  1.0000
  C   C11       1.0  0.2656262543315643  0.9961252180036156  0.26662758004910114  1.0000
  C   C12       1.0  0.3387894647400322  0.03866826327915086  0.28124008785006605  1.0000
  C   C13       1.0  0.4475727029847708  0.28245679238095933  0.4575513755918619  1.0000
  C   C14       1.0  0.5207657166698572  0.3250015014836694  0.47223111029387166  1.0000
  H   H1        1.0  0.6012994200277062  0.19990250048183691  0.1744257368485551  1.0000
  H   H2        1.0  0.4728824842393171  0.12586407580483533  0.14714592598384546  1.0000
  H   H3        1.0  0.2975652006224296  0.34401132099912424  0.38586789784868536  1.0000
  H   H4        1.0  0.14780181356853608  0.04400313496056518  0.28364875631362474  1.0000
  H   H5        1.0  0.2565090645418873  0.8991982404029009  0.23328208126085204  1.0000
  H   H6        1.0  0.3854792244304402  0.9727442111851633  0.2601238025992689  1.0000
  H   H7        1.0  0.4056633079506635  0.30507366057142926  0.5385759171048536  1.0000
  H   H8        1.0  0.533952922296324  0.38065859032470506  0.5630893942884658  1.0000
  C   C15       1.0  0.9069405126005484  0.9839753253923408  0.3949476330432218  1.0000
  C   C16       1.0  0.9073482947016798  0.9925752545223252  0.2431691656492343  1.0000
  C   C17       1.0  0.9076297711891057  0.8797992146427741  0.16605478561888765  1.0000
  C   C18       1.0  0.9074979087175887  0.7573097320276859  0.24277036951627481  1.0000
  C   C19       1.0  0.9070860021144069  0.7467557616799163  0.3946434898840936  1.0000
  C   C20       1.0  0.9068110994647195  0.8605982910534216  0.46979710655901  1.0000
  C   C21       1.0  0.9080602746153326  0.8899420458398198  0.005488177097239256  1.0000
  C   C22       1.0  0.9535969476950075  0.8048329055927819  0.9272071272338231  1.0000
  C   C23       1.0  0.9539088037193801  0.8146351052958098  0.7760685065840769  1.0000
  C   C24       1.0  0.9088774246492254  0.9091504872885847  0.7014992488633869  1.0000
  C   C25       1.0  0.8634402432083026  0.9941254335868428  0.7779172877662179  1.0000
  C   C26       1.0  0.8629394779089222  0.9848271166506405  0.9290599547058987  1.0000
  H   H9        1.0  0.9067453108142371  0.3081449832089964  0.4533322919082614  1.0000
  H   H10       1.0  0.9084876355288293  0.08717138541289593  0.18454878856218393  1.0000
  H   H11       1.0  0.9066784526295018  0.6701011723137954  0.18390829243079887  1.0000
  H   H12       1.0  0.9064945110106819  0.8532495366197235  0.5868673547335359  1.0000
  H   H13       1.0  0.9058308286061015  0.5195668341156274  0.6813038075453564  1.0000
  H   H14       1.0  0.9896451887011657  0.7319121363950368  0.9828037824466533  1.0000
  H   H15       1.0  0.9892545648966109  0.7490687302022495  0.7167226575455397  1.0000
  H   H16       1.0  0.9091919961581699  0.9165431322923899  0.5845064201133239  1.0000
  H   H17       1.0  0.8284097702201898  0.06710093861492927  0.7200081492939998  1.0000
  H   H18       1.0  0.8265886401785711  0.050630084368721746  0.9861275859749353  1.0000
  C   C27       1.0  0.9082433936251365  0.3618673299928193  0.9715015756502589  1.0000
  C   C28       1.0  0.9697802891827701  0.4138005772321396  0.03905277188806687  1.0000
  C   C29       1.0  0.027057461980187766  0.47563459610344916  0.9582859626702156  1.0000
  C   C30       1.0  0.023002573995653863  0.4858510773350223  0.8069073302907879  1.0000
  C   C31       1.0  0.9630439353455628  0.43305640721841826  0.7379885794689289  1.0000
  C   C32       1.0  0.905783110842976  0.3688637117557147  0.8180895070824983  1.0000
  O   O1        1.0  0.08654228568400701  0.5260662643148764  0.03250407301112924  1.0000
  C   C33       1.0  0.14842295924646431  0.5914780300897069  0.9643942676939803  1.0000
  H   H19       1.0  0.7295255695380441  0.29059022482541397  0.08545693676533772  1.0000
  H   H20       1.0  0.06629082987415735  0.533389118691731  0.7412615576110162  1.0000
  H   H21       1.0  0.9624390024546405  0.4397789296658281  0.6209145932112397  1.0000
  H   H22       1.0  0.7866009599961333  0.31567294458545336  0.5446084526981894  1.0000
  H   H23       1.0  0.12827257172202033  0.6803257823950764  0.9002916299684545  1.0000
  H   H24       1.0  0.17973672975911348  0.5255311675993597  0.8934978342794762  1.0000
  H   H25       1.0  0.18688722896202936  0.620694390874364  0.04859996993596205  1.0000
  Zn  Zn1       1.0  0.8246909721852118  0.3692794954965948  0.3961364853107232  1.0000
  Zn  Zn2       1.0  0.9893283573938759  0.36145130477081117  0.3934540747468529  1.0000
  C   C34       1.0  0.9062455065154045  0.3623673280395727  0.6580683690291024  1.0000
  C   C35       1.0  0.9077756208002373  0.3683650266460237  0.1315223025624157  1.0000
  C   C36       1.0  0.9070713326155775  0.6025267365578733  0.38895693389593466  1.0000
  C   C37       1.0  0.9069497379998587  0.12820406102388418  0.4006338160833667  1.0000
  O   O2        1.0  0.9700976605580046  0.36756928928447863  0.1842087617514243  1.0000
  O   O3        1.0  0.9688794337002105  0.3572206665529882  0.6033456077354828  1.0000
  O   O4        1.0  0.9695454521171412  0.5511524785957544  0.3860362330417013  1.0000
  O   O5        1.0  0.9694315862773479  0.17363748831060954  0.40151802927746005  1.0000
  O   O6        1.0  0.8445876871191026  0.5570933146295249  0.38807253168790834  1.0000
  O   O7        1.0  0.8439216692197409  0.36316306236332585  0.6053818289016994  1.0000
  O   O8        1.0  0.8451399011552807  0.37351162551096495  0.18624324988458896  1.0000
  O   O9        1.0  0.8444738265557129  0.1795798161409272  0.40355262548616344  1.0000
