data_image0
_chemical_formula_structural       NC6NC3H6C6ClH5C6IH3Zn2C4O8
_chemical_formula_sum              "N2 C25 H14 Cl1 I1 Zn2 O8"
_cell_length_a       14.934028789175542
_cell_length_b       9.276545438789551
_cell_length_c       9.27543390334687
_cell_angle_alpha    86.20108945286073
_cell_angle_beta     89.94113207268822
_cell_angle_gamma    89.37211250715544

_space_group_name_H-M_alt    "P 1"
_space_group_IT_number       1

loop_
  _space_group_symop_operation_xyz
  'x, y, z'

loop_
  _atom_site_type_symbol
  _atom_site_label
  _atom_site_symmetry_multiplicity
  _atom_site_fract_x
  _atom_site_fract_y
  _atom_site_fract_z
  _atom_site_occupancy
  N   N1        1.0  0.8337915950636873  0.5603192333087779  0.410940533216962  1.0000
  C   C1        1.0  0.7563128501370473  0.5592139979741089  0.4102612873063043  1.0000
  C   C2        1.0  0.6599254196319699  0.5578340055740192  0.40941337495032415  1.0000
  C   C3        1.0  0.6114536774915871  0.6653075981338055  0.47534238827553693  1.0000
  C   C4        1.0  0.5179492638367851  0.664199571086467  0.4746625470430095  1.0000
  C   C5        1.0  0.4720036812748052  0.5556728003579618  0.4080875383451159  1.0000
  C   C6        1.0  0.37534254797840877  0.5580013655724381  0.4095172664621216  1.0000
  N   N2        1.0  0.29785023384104936  0.5598493791372874  0.4106522642080588  1.0000
  C   C7        1.0  0.5204796642743185  0.44671232825450935  0.3412458568254315  1.0000
  C   C8        1.0  0.4729419981350052  0.3287211824623173  0.2688662140390461  1.0000
  C   C9        1.0  0.6146076854376805  0.4489509894003734  0.34261920174828764  1.0000
  H   H1        1.0  0.6459391855876133  0.7499868261137237  0.5272889244040513  1.0000
  H   H2        1.0  0.48135913012139575  0.7482266447024284  0.5262088798765157  1.0000
  H   H3        1.0  0.42991729197211426  0.3768433084587877  0.18031953063491146  1.0000
  H   H4        1.0  0.4305642542925416  0.2667348583540867  0.3489146133309833  1.0000
  H   H5        1.0  0.5209051369639244  0.25229654017861325  0.22197757471375157  1.0000
  H   H6        1.0  0.6526835029279978  0.3660417293757263  0.29175887401216394  1.0000
  C   C10       1.0  0.06852780992564939  0.13664388640786718  0.4105571680758182  1.0000
  C   C11       1.0  0.06891677330156698  0.21888040517871057  0.27755470600328835  1.0000
  C   C12       1.0  0.06115804858645954  0.15242510178462476  0.14745212244055517  1.0000
  C   C13       1.0  0.05282622950273372  0.002851894573657979  0.14835044485992  1.0000
  C   C14       1.0  0.05381968805636969  0.9190495965501331  0.278910790711854  1.0000
  C   C15       1.0  0.06312270972218337  0.9835137722551076  0.41104807429923995  1.0000
  Cl  Cl1       1.0  0.060526126214019066  0.2572975036970184  0.9829437494484017  1.0000
  H   H7        1.0  0.11423905626071092  0.401966118198386  0.6370791997111305  1.0000
  H   H8        1.0  0.07311362691593798  0.33556637858585114  0.274699150000415  1.0000
  H   H9        1.0  0.046432010545509134  0.9510662044503909  0.0476955608654226  1.0000
  H   H10       1.0  0.0494429779129155  0.8027653811563572  0.2762637799551435  1.0000
  H   H11       1.0  0.033017804131206335  0.6872868853182563  0.6440769443982273  1.0000
  C   C16       1.0  0.06601114318327478  0.5555780740994993  0.9876475805333591  1.0000
  C   C17       1.0  0.1485132678231762  0.5527950648511388  0.06104963622098248  1.0000
  C   C18       1.0  0.22911360362524513  0.5633013970744993  0.9848869163068019  1.0000
  C   C19       1.0  0.228501816074092  0.5769260765013493  0.8343494960505122  1.0000
  C   C20       1.0  0.1475307748898037  0.5775279744357305  0.7594247129509006  1.0000
  C   C21       1.0  0.06563934581459896  0.5645794987756864  0.8339576168083003  1.0000
  I   I1        1.0  0.3517794415226292  0.5612630061444224  0.09759399973440552  1.0000
  H   H12       1.0  0.8520119345118807  0.641220502835498  0.08531932036048384  1.0000
  H   H13       1.0  0.2908972727128576  0.5856773998101688  0.7751048746707871  1.0000
  H   H14       1.0  0.9211541691327498  0.6161759836685861  0.5496014736435022  1.0000
  Zn  Zn1       1.0  0.9677089285189894  0.5601798679774328  0.410865657713011  1.0000
  Zn  Zn2       1.0  0.16393300066350003  0.5599770580741585  0.4107389139498243  1.0000
  C   C22       1.0  0.0657442955248375  0.5571336509403336  0.6739835952826061  1.0000
  C   C23       1.0  0.06589976474409909  0.5630250937883816  0.14762111748360174  1.0000
  C   C24       1.0  0.06414228479080906  0.8233762336797736  0.40521306593180095  1.0000
  C   C25       1.0  0.06750171954400526  0.296780779504481  0.41639172269846303  1.0000
  O   O1        1.0  0.14032843802160655  0.5654411255538652  0.2012615956163295  1.0000
  O   O2        1.0  0.14024515981414404  0.5545625989362701  0.6202465061278377  1.0000
  O   O3        1.0  0.13895051139052628  0.7695568685694656  0.4032124035984692  1.0000
  O   O4        1.0  0.14162301946886857  0.35044686515579904  0.4182955901510368  1.0000
  O   O5        1.0  0.990018842751968  0.7697100609664911  0.4033089815474711  1.0000
  O   O6        1.0  0.9913134801480556  0.5547175229484542  0.6203430082484565  1.0000
  O   O7        1.0  0.9913967594968697  0.5655959808906013  0.20135636522635925  1.0000
  O   O8        1.0  0.9926913409588355  0.35060171132810414  0.41839046779140077  1.0000
