data_image0
_chemical_formula_structural       NC12NC2H8C6NCSNH8C6NO2H4Zn2C4O8
_chemical_formula_sum              "N5 C31 H20 S1 O10 Zn2"
_cell_length_a       17.80743265337812
_cell_length_b       9.275078345756787
_cell_length_c       9.27342699604674
_cell_angle_alpha    84.96941291578096
_cell_angle_beta     91.97882923782456
_cell_angle_gamma    90.00966593732542

_space_group_name_H-M_alt    "P 1"
_space_group_IT_number       1

loop_
  _space_group_symop_operation_xyz
  'x, y, z'

loop_
  _atom_site_type_symbol
  _atom_site_label
  _atom_site_symmetry_multiplicity
  _atom_site_fract_x
  _atom_site_fract_y
  _atom_site_fract_z
  _atom_site_occupancy
  N   N1        1.0  0.7091885354427048  0.5736064374849179  0.44084301655382935  1.0000
  C   C1        1.0  0.6582285297970171  0.606988060579837  0.3643859757924113  1.0000
  C   C2        1.0  0.5948292946814651  0.6485123472515728  0.2692830367652974  1.0000
  C   C3        1.0  0.6062949448781274  0.7095280635551255  0.12836527819892263  1.0000
  C   C4        1.0  0.5448052395839244  0.7493631123760806  0.0359303930396071  1.0000
  C   C5        1.0  0.4716941168459818  0.7284803646443645  0.08367890450789406  1.0000
  C   C6        1.0  0.4592531230419062  0.667328940618753  0.22511741394206508  1.0000
  C   C7        1.0  0.5216000886289711  0.6274976382950337  0.3175339348299491  1.0000
  C   C8        1.0  0.381580300137871  0.6451858040473393  0.2760488712729072  1.0000
  C   C9        1.0  0.3635237748899977  0.6743626398781302  0.4171830757234314  1.0000
  C   C10       1.0  0.2903831278168284  0.6535257419206838  0.464976545240216  1.0000
  C   C11       1.0  0.2343583595726568  0.6032228716741717  0.37256807782655654  1.0000
  C   C12       1.0  0.15908425816105687  0.5817607224651322  0.42192052710123096  1.0000
  N   N2        1.0  0.0985692112467577  0.5645065984796757  0.4615965012912284  1.0000
  C   C13       1.0  0.2517248732365061  0.573854072649335  0.23203795794301119  1.0000
  C   C14       1.0  0.324811594991493  0.594709444489466  0.1839600034603364  1.0000
  H   H1        1.0  0.6626902285089039  0.7262687946665123  0.09003922241000528  1.0000
  H   H2        1.0  0.5538034858668625  0.7969039075149218  0.9271088530183597  1.0000
  H   H3        1.0  0.42492873201751685  0.7619221557311795  0.010676347813371125  1.0000
  H   H4        1.0  0.513291718378131  0.578419193069437  0.42622150335034026  1.0000
  H   H5        1.0  0.40570943521041697  0.7151314919603784  0.4899557187277423  1.0000
  H   H6        1.0  0.27750749169828237  0.6770035170572304  0.5738523477930142  1.0000
  H   H7        1.0  0.20883146641608052  0.5344894664855844  0.15972035810198792  1.0000
  H   H8        1.0  0.3371513991720118  0.5695237206697945  0.07542621437128962  1.0000
  C   C15       1.0  0.9016930788561917  0.14547410723001028  0.45243669752650023  1.0000
  C   C16       1.0  0.8765184185622472  0.2297068480986071  0.3267421365087284  1.0000
  C   C17       1.0  0.8588199107113711  0.16592561494749705  0.19921332800378003  1.0000
  C   C18       1.0  0.8667113946738827  0.01620925574540876  0.19379077046766247  1.0000
  C   C19       1.0  0.889172694845611  0.9305485876920772  0.3197407275510613  1.0000
  C   C20       1.0  0.9060718429790884  0.9926276189833371  0.450015640969049  1.0000
  N   N3        1.0  0.8477683549772468  0.9481405628568865  0.06400296801777583  1.0000
  C   C21       1.0  0.8568858195144601  0.015484382204200568  0.9203141362464926  1.0000
  S   S1        1.0  0.8072622612010081  0.957671985827609  0.7851897501183812  1.0000
  N   N4        1.0  0.9145120364696684  0.12035425435384561  0.8910377871026052  1.0000
  H   H9        1.0  0.9074397064064925  0.40576764677983834  0.6912368089116616  1.0000
  H   H10       1.0  0.8718307576891416  0.34620801219931185  0.326174572391012  1.0000
  H   H11       1.0  0.838747745241859  0.23374859297327588  0.1048366429234513  1.0000
  H   H12       1.0  0.8922735327189394  0.8142187820903227  0.31622852211091446  1.0000
  H   H13       1.0  0.9727075838587385  0.693658796309086  0.6560930761140811  1.0000
  H   H14       1.0  0.8266246876375176  0.8427248811848312  0.07478634076687607  1.0000
  H   H15       1.0  0.9535135666342044  0.14493106160818137  0.9717863408017339  1.0000
  H   H16       1.0  0.9206716664901267  0.16923039383712846  0.7863298604386126  1.0000
  C   C22       1.0  0.9021649944757353  0.5721212749621403  0.027298328645583455  1.0000
  C   C23       1.0  0.946309345306213  0.6742048029304875  0.09506084602579157  1.0000
  C   C24       1.0  0.9953429529180217  0.7667061410570153  0.01586701305461879  1.0000
  C   C25       1.0  5.9846772670238084e-05  0.7561969398478292  0.8665086649960456  1.0000
  C   C26       1.0  0.9557720810218947  0.6572683202813838  0.7972450804829196  1.0000
  C   C27       1.0  0.9055999159845144  0.565980372437924  0.8751540954118223  1.0000
  N   N5        1.0  0.04055642544052973  0.8696587621743656  0.08736567995705502  1.0000
  O   O1        1.0  0.035780832991101796  0.8800889550606575  0.2338937891248243  1.0000
  O   O2        1.0  0.08465741243550684  0.9514230364815589  0.01760924183334312  1.0000
  H   H17       1.0  0.7964389080052978  0.4457808345522832  0.31155078153415716  1.0000
  H   H18       1.0  0.943751345454692  0.6792716649314277  0.21102044296469957  1.0000
  H   H19       1.0  0.03754635414765062  0.8256707005508078  0.8026401981032882  1.0000
  H   H20       1.0  0.7469559317159331  0.38509152335582986  0.7776602648644078  1.0000
  Zn  Zn1       1.0  0.8215554045443844  0.5709765091675019  0.44684035739295586  1.0000
  Zn  Zn2       1.0  0.9862023265399075  0.5671246754724173  0.45561096926222944  1.0000
  C   C28       1.0  0.9049192801172946  0.561394872397303  0.7149074907401012  1.0000
  C   C29       1.0  0.9028402588875173  0.576708089151351  0.18754406817974112  1.0000
  C   C30       1.0  0.9052169976286829  0.83253931149994  0.4447203970346252  1.0000
  C   C31       1.0  0.902542476547853  0.3055619177945943  0.4577312408104057  1.0000
  O   O3        1.0  0.9655495000987105  0.5767794222039053  0.24465242171026683  1.0000
  O   O4        1.0  0.9671732357221371  0.5583990015383151  0.6644554162245502  1.0000
  O   O5        1.0  0.9674128101630977  0.7773515740362548  0.44627737728351957  1.0000
  O   O6        1.0  0.9653098690897227  0.3578268621228522  0.4628303493877788  1.0000
  O   O7        1.0  0.8424478058086327  0.7802743238331342  0.4396209742668291  1.0000
  O   O8        1.0  0.8422082400100112  0.5613234849053819  0.6577989312820935  1.0000
  O   O9        1.0  0.840584497145073  0.5797038678754196  0.23799420126860518  1.0000
  O   O10       1.0  0.8403448665181762  0.3607512966935469  0.4561722372090587  1.0000
