data_image0
_chemical_formula_structural       NC8NC6H8C9H10C6NCOCH9Zn2C4O8
_chemical_formula_sum              "N3 C35 H27 O9 Zn2"
_cell_length_a       17.457602349358154
_cell_length_b       9.272676604525723
_cell_length_c       10.300272075376752
_cell_angle_alpha    85.79057383563607
_cell_angle_beta     92.87481935650747
_cell_angle_gamma    92.2282679722568

_space_group_name_H-M_alt    "P 1"
_space_group_IT_number       1

loop_
  _space_group_symop_operation_xyz
  'x, y, z'

loop_
  _atom_site_type_symbol
  _atom_site_label
  _atom_site_symmetry_multiplicity
  _atom_site_fract_x
  _atom_site_fract_y
  _atom_site_fract_z
  _atom_site_occupancy
  N   N1        1.0  0.730733469306223  0.6142094465078674  0.6335859232313694  1.0000
  C   C1        1.0  0.6693938961798965  0.5632038974695277  0.6227487935015041  1.0000
  C   C2        1.0  0.5930849165811525  0.4997593377973684  0.6092769732611911  1.0000
  C   C3        1.0  0.5347838818815102  0.544338559431338  0.684365356522465  1.0000
  C   C4        1.0  0.45992505066331046  0.48324654029518177  0.671518180938973  1.0000
  C   C5        1.0  0.39804582697414653  0.5303155403071009  0.7510390086207703  1.0000
  C   C6        1.0  0.32360548807324974  0.55085020162172  0.6953672027256099  1.0000
  C   C7        1.0  0.2653033999118189  0.595225093330965  0.7705626462776878  1.0000
  C   C8        1.0  0.18942840079035533  0.6164335405798156  0.7126784049067609  1.0000
  N   N2        1.0  0.1284377816282608  0.6334780461072638  0.6661395950635622  1.0000
  C   C9        1.0  0.2809508647941415  0.6193351867816077  0.9019395654096565  1.0000
  C   C10       1.0  0.35460871027975055  0.5992324272840821  0.9580008314975975  1.0000
  C   C11       1.0  0.41290021162315116  0.5550573466761326  0.8832639588078828  1.0000
  C   C12       1.0  0.44465206422964154  0.37682343702938725  0.582146493278141  1.0000
  C   C13       1.0  0.5029429622505911  0.33255359351007785  0.5074594419383538  1.0000
  C   C14       1.0  0.5770176583476433  0.3937702165077761  0.520857085799278  1.0000
  H   H1        1.0  0.5475554014440898  0.6278319564890991  0.7513563913278958  1.0000
  H   H2        1.0  0.31117702022525673  0.5342620619989793  0.5932749308784799  1.0000
  H   H3        1.0  0.23626488016191163  0.6536142430566185  0.9609219900244657  1.0000
  H   H4        1.0  0.3665323547796049  0.6175508226907951  0.059727384886496204  1.0000
  H   H5        1.0  0.469299500758  0.5383879136985967  0.9292959328899794  1.0000
  H   H6        1.0  0.3879091317056141  0.32647285311635654  0.5712760971120547  1.0000
  H   H7        1.0  0.49069163996348175  0.2503007271986317  0.43927553308948813  1.0000
  H   H8        1.0  0.6216987189883033  0.35852497881970274  0.46238156167814987  1.0000
  C   C15       1.0  0.9274149526008338  0.2002505663973493  0.648026163387545  1.0000
  C   C16       1.0  0.8966905884243205  0.26283426786780173  0.7530603356651633  1.0000
  C   C17       1.0  0.8729873368856547  0.1775213351602667  0.8618429975459331  1.0000
  C   C18       1.0  0.8792435387408537  0.027073445642704204  0.8692546323696572  1.0000
  C   C19       1.0  0.9087106260854197  0.9629794125269807  0.7631170311496931  1.0000
  C   C20       1.0  0.9317636005811811  0.04742613139341945  0.6517111543880552  1.0000
  C   C21       1.0  0.8527957134507568  0.9421451581329524  0.9918353954466298  1.0000
  C   C22       1.0  0.8140111969680552  0.7941748235044911  0.9757310325832248  1.0000
  C   C23       1.0  0.8950409009698329  0.8055305540833336  0.03731076936162059  1.0000
  H   H9        1.0  0.9444677883208613  0.49995490811795706  0.43662333420225097  1.0000
  H   H10       1.0  0.8926413574047538  0.3791606423653353  0.7526040531045171  1.0000
  H   H11       1.0  0.8502489642717516  0.22984613749959926  0.9415758868279238  1.0000
  H   H12       1.0  0.9123715753977472  0.8467561483503835  0.7646225791864056  1.0000
  H   H13       1.0  0.9516934457093353  0.9716541688593672  0.3353719060511422  1.0000
  H   H14       1.0  0.8310676287207647  0.0011953294611684053  0.07182007112786215  1.0000
  H   H15       1.0  0.810455115414799  0.7547765438439437  0.8764415264304313  1.0000
  H   H16       1.0  0.7695319590447223  0.7632192058924459  0.0470078741839719  1.0000
  H   H17       1.0  0.9406826545380141  0.7729006440491863  0.975502427354732  1.0000
  H   H18       1.0  0.8979176514067849  0.7812056589996504  0.1445949978767458  1.0000
  C   C24       1.0  0.9295963107412506  0.6239851483992573  0.2685170714449825  1.0000
  C   C25       1.0  0.851232892284985  0.6543030314444366  0.2587977399134709  1.0000
  C   C26       1.0  0.8119870271750644  0.6715402056112287  0.13651299614436563  1.0000
  C   C27       1.0  0.8512389607730081  0.6539745349708344  0.02366298538874823  1.0000
  C   C28       1.0  0.929582239414387  0.6236915148118114  0.031220262265830415  1.0000
  C   C29       1.0  0.9684152847123166  0.609397467352504  0.15412556701958557  1.0000
  N   N3        1.0  0.7314754541322787  0.7003436791941409  0.1250696928802335  1.0000
  C   C30       1.0  0.6938416316080999  0.7882929575700606  0.20979400215503063  1.0000
  O   O1        1.0  0.7323285953151244  0.867289081735123  0.2855102644654519  1.0000
  C   C31       1.0  0.608351848532642  0.794757895542046  0.2017255853359556  1.0000
  H   H19       1.0  0.9591273316358725  0.6103694866870017  0.5997523733957562  1.0000
  H   H20       1.0  0.8203859318997055  0.6616641736806821  0.3464507407783297  1.0000
  H   H21       1.0  0.8203560176110011  0.6652898869749093  0.929816198652571  1.0000
  H   H22       1.0  0.028859473952836726  0.5860534845608782  0.1608107445810345  1.0000
  H   H23       1.0  0.9590030098132458  0.6100923067691104  0.7067935266762992  1.0000
  H   H24       1.0  0.6992282266507205  0.6628173726410793  0.04533198535835203  1.0000
  H   H25       1.0  0.5823165503167108  0.6857243122355696  0.18679512130583942  1.0000
  H   H26       1.0  0.5875232728697872  0.8322692739097017  0.2932171800937271  1.0000
  H   H27       1.0  0.5903097364885609  0.8709570029848541  0.11868925237151484  1.0000
  Zn  Zn1       1.0  0.8455023229937905  0.6197660769408799  0.6429876910257781  1.0000
  Zn  Zn2       1.0  0.013668852786739023  0.627909584856041  0.6567484078703834  1.0000
  C   C32       1.0  0.9295536700786957  0.6180004756502342  0.8870278646045445  1.0000
  C   C33       1.0  0.9296193514151918  0.629677095068808  0.41270851993554974  1.0000
  C   C34       1.0  0.9309377379813106  0.8872937278133646  0.6458393387855912  1.0000
  C   C35       1.0  0.928235217231896  0.3603821070439948  0.6538971027561122  1.0000
  O   O2        1.0  0.9934453734223364  0.6346714901400416  0.46632258020913686  1.0000
  O   O3        1.0  0.9933621474968829  0.6191857266071018  0.8438574914523166  1.0000
  O   O4        1.0  0.9944789395057165  0.836643391226727  0.6490959865309616  1.0000
  O   O5        1.0  0.9923285240844245  0.4172138330978861  0.6610839831095334  1.0000
  O   O6        1.0  0.8668425943091304  0.8304618259216288  0.6386521110839463  1.0000
  O   O7        1.0  0.8657258111940034  0.6130058943862786  0.8334135543010113  1.0000
  O   O8        1.0  0.8658090369413262  0.6284916082560716  0.4558770815136539  1.0000
  O   O9        1.0  0.8646921875455174  0.4110339408590397  0.6506385817323275  1.0000
