data_image0
_chemical_formula_structural       NC9NC3NH7C7NC2NH8C7ONH7Zn2C4O8
_chemical_formula_sum              "N6 C32 H22 O9 Zn2"
_cell_length_a       16.053384444249904
_cell_length_b       9.273995741505848
_cell_length_c       10.297855452804892
_cell_angle_alpha    85.68463501801465
_cell_angle_beta     89.79073978720562
_cell_angle_gamma    89.75855226915094

_space_group_name_H-M_alt    "P 1"
_space_group_IT_number       1

loop_
  _space_group_symop_operation_xyz
  'x, y, z'

loop_
  _atom_site_type_symbol
  _atom_site_label
  _atom_site_symmetry_multiplicity
  _atom_site_fract_x
  _atom_site_fract_y
  _atom_site_fract_z
  _atom_site_occupancy
  N   N1        1.0  0.7937486289347849  0.5593084529226141  0.5677594057434618  1.0000
  C   C1        1.0  0.7428680408648731  0.536228570719697  0.49284790069294077  1.0000
  C   C2        1.0  0.6796374031910846  0.5075515593440668  0.3997895360380679  1.0000
  C   C3        1.0  0.6931938694233729  0.49418970984727223  0.2690051349868603  1.0000
  C   C4        1.0  0.6164115766526547  0.466088652151164  0.21668018334094774  1.0000
  C   C5        1.0  0.5592892607311051  0.4638702823150351  0.3183635224075896  1.0000
  C   C6        1.0  0.4684827442941184  0.43742567196293564  0.3080559812042858  1.0000
  C   C7        1.0  0.4128526579732564  0.48481438755325507  0.40208416648588746  1.0000
  C   C8        1.0  0.327158001751507  0.45973417526489807  0.3922120453141864  1.0000
  C   C9        1.0  0.2707589079497707  0.50905930129695  0.4886168510959721  1.0000
  N   N2        1.0  0.2254306606477319  0.5487097475221974  0.5661112192853299  1.0000
  C   C10       1.0  0.2963666690571495  0.3871409089090455  0.28832517349222986  1.0000
  C   C11       1.0  0.3509889550272906  0.33988492084295774  0.19450898816949902  1.0000
  C   C12       1.0  0.4364766184783823  0.36478127620053136  0.2039840508006381  1.0000
  N   N3        1.0  0.5986124106032683  0.4893350186943477  0.4299936054027132  1.0000
  H   H1        1.0  0.7519918334266598  0.5037958908467577  0.21740214931511082  1.0000
  H   H2        1.0  0.6040752871802799  0.4508333249988501  0.11545419614304865  1.0000
  H   H3        1.0  0.4355018171718055  0.5430289932199459  0.4820256523044226  1.0000
  H   H4        1.0  0.2302282854447173  0.36719596882031863  0.27984670454784344  1.0000
  H   H5        1.0  0.32706020931070906  0.28349321123508064  0.11433768401579392  1.0000
  H   H6        1.0  0.4773745836602603  0.3254550708074819  0.13063642850438395  1.0000
  H   H7        1.0  0.5724510711988462  0.4919299320366848  0.5227737805394803  1.0000
  C   C13       1.0  0.007102557123597422  0.13058154020608434  0.5659959227054503  1.0000
  C   C14       1.0  0.02173936118657171  0.2135007211490545  0.44847232314908037  1.0000
  C   C15       1.0  0.043829083289734776  0.14788450563671174  0.33579225998704865  1.0000
  C   C16       1.0  0.05220330477930291  0.9972322314286146  0.33741605270145336  1.0000
  C   C17       1.0  0.03581749881610997  0.9130787829123059  0.45387030538017553  1.0000
  C   C18       1.0  0.01208461976056641  0.977425353910373  0.567885834991319  1.0000
  C   C19       1.0  0.0766300364760526  0.92967862779506  0.21661804635663473  1.0000
  N   N4        1.0  0.07967615227096858  0.003930899811753098  0.09857701653422436  1.0000
  C   C20       1.0  0.1046692523067756  0.9054592070794444  0.016788736779616897  1.0000
  C   C21       1.0  0.11654773430628085  0.7742282839866721  0.08569915171106235  1.0000
  N   N5        1.0  0.09894969462129712  0.7896139595663741  0.21135595861540837  1.0000
  H   H8        1.0  0.9395339509339388  0.3967748631152338  0.7531958298560641  1.0000
  H   H9        1.0  0.018115401394614313  0.3304350838669612  0.44429677757913116  1.0000
  H   H10       1.0  0.055594020619156526  0.2158273724630957  0.24750960566595606  1.0000
  H   H11       1.0  0.03863787733740608  0.7964467863052566  0.4556596012828664  1.0000
  H   H12       1.0  0.013152881516279354  0.6792905669626584  0.7838871818992266  1.0000
  H   H13       1.0  0.11389534138164259  0.9282916165746331  0.9131930272461521  1.0000
  H   H14       1.0  0.13700931821911366  0.6746282884133049  0.04711522029446802  1.0000
  H   H15       1.0  0.1034691000828678  0.7089349129774313  0.28726515186591794  1.0000
  C   C22       1.0  0.009627106476305382  0.5541460074777933  0.18549907596457094  1.0000
  C   C23       1.0  0.9246299424451515  0.5909994823771021  0.18251284278967495  1.0000
  C   C24       1.0  0.8813283993649581  0.6084542935974775  0.06399835879671034  1.0000
  C   C25       1.0  0.9245267540162868  0.5906776059716321  0.9472795930290565  1.0000
  C   C26       1.0  0.009560059354317705  0.5538608957118454  0.9483826909413633  1.0000
  C   C27       1.0  0.051501300297356334  0.5355046798954697  0.06795496465425521  1.0000
  C   C28       1.0  0.7916190151650041  0.6477197849974796  0.06342045087280712  1.0000
  O   O1        1.0  0.7611576184901085  0.710002889656109  0.15748497224879765  1.0000
  N   N6        1.0  0.7381430118891684  0.614931847492536  0.9589237321283308  1.0000
  H   H16       1.0  0.1703403003957551  0.48500814193461705  0.39837584769884177  1.0000
  H   H17       1.0  0.8917732231557136  0.6049541730404593  0.27282563145611594  1.0000
  H   H18       1.0  0.8926281256080087  0.6080896113125704  0.8550476491360745  1.0000
  H   H19       1.0  0.11700890967171618  0.5070977240344703  0.06950307613886642  1.0000
  H   H20       1.0  0.17060038616241635  0.4865398633160347  0.7430369702104112  1.0000
  H   H21       1.0  0.676144616674631  0.6494870553555935  0.9581485004791404  1.0000
  H   H22       1.0  0.7575530952999663  0.5486642054840204  0.8870136818072211  1.0000
  Zn  Zn1       1.0  0.9183227128904091  0.5562460471923854  0.5672912604226614  1.0000
  Zn  Zn2       1.0  0.1008564831892873  0.5517604020447815  0.5665899546663535  1.0000
  C   C29       1.0  0.009537087159497526  0.5481706207051091  0.8041685528985015  1.0000
  C   C30       1.0  0.00964411287538902  0.5598375988330035  0.3297127860833746  1.0000
  C   C31       1.0  0.011139070189691628  0.8173559289013086  0.56235247756973  1.0000
  C   C32       1.0  0.008042057361352885  0.29065055976392107  0.5715289270370962  1.0000
  O   O2        1.0  0.07892039791591099  0.5600391793516084  0.3778460686891709  1.0000
  O   O3        1.0  0.07879970386528967  0.544563451680586  0.7555026191056584  1.0000
  O   O4        1.0  0.08009239150230862  0.7619340148047143  0.5602344343225962  1.0000
  O   O5        1.0  0.07762764806172175  0.342668628109297  0.5731141563412794  1.0000
  O   O6        1.0  0.9415514857281665  0.7653378226601724  0.560767058980228  1.0000
  O   O7        1.0  0.9402588082851818  0.5479689919412294  0.7560351783708323  1.0000
  O   O8        1.0  0.9403795022328274  0.5634446699475189  0.3783770661428363  1.0000
  O   O9        1.0  0.9390867523060009  0.3460741083556933  0.5736452511583914  1.0000
