data_image0
_chemical_formula_structural       NC6NC3H6C6BrH5C6NCH7Zn2C4O8
_chemical_formula_sum              "N3 C26 H18 Br1 Zn2 O8"
_cell_length_a       14.934028789175542
_cell_length_b       9.276564384272257
_cell_length_c       9.273390368590327
_cell_angle_alpha    86.11919172510322
_cell_angle_beta     89.96634751040418
_cell_angle_gamma    90.54840447220178

_space_group_name_H-M_alt    "P 1"
_space_group_IT_number       1

loop_
  _space_group_symop_operation_xyz
  'x, y, z'

loop_
  _atom_site_type_symbol
  _atom_site_label
  _atom_site_symmetry_multiplicity
  _atom_site_fract_x
  _atom_site_fract_y
  _atom_site_fract_z
  _atom_site_occupancy
  N   N1        1.0  0.8532568294142645  0.5604596338026815  0.40834393298564686  1.0000
  C   C1        1.0  0.7757638032705825  0.559354316544695  0.40766612807938013  1.0000
  C   C2        1.0  0.679358541347559  0.5579742218536221  0.4068200149979224  1.0000
  C   C3        1.0  0.6322754782104495  0.6654557818512872  0.47260887765435067  1.0000
  C   C4        1.0  0.5387567475718764  0.6643476726628204  0.4719304813132783  1.0000
  C   C5        1.0  0.49140887778612435  0.5558128564195356  0.4054969966940293  1.0000
  C   C6        1.0  0.3947778325072547  0.5581415942471901  0.40692368853477345  1.0000
  N   N2        1.0  0.31730939713940065  0.5599897447994509  0.40805627668010125  1.0000
  C   C7        1.0  0.5384769694852816  0.44684430665535846  0.33879740468305974  1.0000
  C   C8        1.0  0.48941472614811427  0.3288444137053057  0.26657162824096825  1.0000
  C   C9        1.0  0.6326339166683557  0.44908313376142606  0.3401678302969457  1.0000
  H   H1        1.0  0.6678551367884712  0.7501412874279763  0.5244449881771975  1.0000
  H   H2        1.0  0.5032523377356589  0.7483809755301893  0.5233672389497761  1.0000
  H   H3        1.0  0.44697954625406716  0.37697125380086915  0.17793613776336326  1.0000
  H   H4        1.0  0.44626831690279906  0.2668523476264182  0.3467269156405868  1.0000
  H   H5        1.0  0.5363903713806468  0.2524141058261611  0.21978264886353172  1.0000
  H   H6        1.0  0.6696384537601914  0.36616772735045733  0.2894156201396456  1.0000
  C   C10       1.0  0.08258960618516736  0.13675035786105627  0.4085703277478979  1.0000
  C   C11       1.0  0.07111864140597413  0.2188616295911783  0.27684783339181696  1.0000
  C   C12       1.0  0.06798098161647892  0.15248937853029787  0.14635059331674105  1.0000
  C   C13       1.0  0.07629446707806896  0.003060544972497419  0.145097949555675  1.0000
  C   C14       1.0  0.0861880319385151  0.9192363766763441  0.2748294477112278  1.0000
  C   C15       1.0  0.08798515672785956  0.9836879968096501  0.4078422841109406  1.0000
  Br  Br1       1.0  0.07266042461033484  0.9128038490256399  0.9660325194148917  1.0000
  H   H7        1.0  0.05632500520074445  0.4018190046272119  0.6429057192768524  1.0000
  H   H8        1.0  0.0666998378688457  0.33549628006051635  0.2743831293568708  1.0000
  H   H9        1.0  0.05993752831219831  0.2176510648281418  0.045961483898206534  1.0000
  H   H10       1.0  0.09033115619658603  0.8029591827141992  0.2717194882348082  1.0000
  H   H11       1.0  0.13737433824855189  0.6880903932001613  0.6322880026346831  1.0000
  C   C16       1.0  0.08530023345331128  0.5557222057156991  0.9849643977733872  1.0000
  C   C17       1.0  0.16752256745823602  0.5527736286016449  0.05851836671826893  1.0000
  C   C18       1.0  0.24839584204100518  0.5632319876490883  0.9830444278078385  1.0000
  C   C19       1.0  0.24910236431990343  0.577027516021412  0.831404196929773  1.0000
  C   C20       1.0  0.16741031685287833  0.5775435745909161  0.7570423781220923  1.0000
  C   C21       1.0  0.08527454698781489  0.5647162043857809  0.8314482528206909  1.0000
  N   N3        1.0  0.3314996315987246  0.5891447441960411  0.7505544095429963  1.0000
  C   C22       1.0  0.4199099209264787  0.5892251815444682  0.8174876575827783  1.0000
  H   H12       1.0  0.9435264921161179  0.4865950152570963  0.2709515459476146  1.0000
  H   H13       1.0  0.31008190853296347  0.5618425628878483  0.0441283292483796  1.0000
  H   H14       1.0  0.8758839139925851  0.4528940834526949  0.7361828251625804  1.0000
  H   H15       1.0  0.3286551846951391  0.5987048865686335  0.6376721620196151  1.0000
  H   H16       1.0  0.42631053467900926  0.6817261613291918  0.886873073593966  1.0000
  H   H17       1.0  0.4301755619120937  0.48613281916733825  0.8831234315868799  1.0000
  H   H18       1.0  0.4724543145083755  0.6000738629768751  0.7325551914140944  1.0000
  Zn  Zn1       1.0  0.9871723650151374  0.5603202580365287  0.40826924156360045  1.0000
  Zn  Zn2       1.0  0.18339381599180238  0.5601174331208034  0.408142761759722  1.0000
  C   C23       1.0  0.08524078723601564  0.5572712417294623  0.6714496254956601  1.0000
  C   C24       1.0  0.08532754809038695  0.5631682682492836  0.14496251634434104  1.0000
  C   C25       1.0  0.0869608450484582  0.8235377584074699  0.40223655373508954  1.0000
  C   C26       1.0  0.0836074122813444  0.296900019887397  0.4141756664781187  1.0000
  O   O1        1.0  0.1598016930815428  0.5655839725837577  0.19861135351893933  1.0000
  O   O2        1.0  0.159694176362864  0.5547005056788634  0.6177043791185048  1.0000
  O   O3        1.0  0.16108214092993556  0.7697141022569403  0.40031291830288324  1.0000
  O   O4        1.0  0.15841366162638293  0.350570385242599  0.4160027063027753  1.0000
  O   O5        1.0  0.012152452419816431  0.7698673059854373  0.40040929705612527  1.0000
  O   O6        1.0  0.01076449888860397  0.5548554411619437  0.6178006795341184  1.0000
  O   O7        1.0  0.010872015399322256  0.5657388394027152  0.19870592114050822  1.0000
  O   O8        1.0  0.009483983871509722  0.350725242895342  0.4160973819917084  1.0000
