data_image0
_chemical_formula_structural       NC12NC2H8C7OC4NC3H8C6NCOC6H11Zn2C4O8
_chemical_formula_sum              "N4 C45 H27 O10 Zn2"
_cell_length_a       17.80743265337812
_cell_length_b       10.299371701877257
_cell_length_c       10.299662537453274
_cell_angle_alpha    85.55951811676591
_cell_angle_beta     91.52043180893111
_cell_angle_gamma    89.44495547056906

_space_group_name_H-M_alt    "P 1"
_space_group_IT_number       1

loop_
  _space_group_symop_operation_xyz
  'x, y, z'

loop_
  _atom_site_type_symbol
  _atom_site_label
  _atom_site_symmetry_multiplicity
  _atom_site_fract_x
  _atom_site_fract_y
  _atom_site_fract_z
  _atom_site_occupancy
  N   N1        1.0  0.70774621492683  0.40715963128323973  0.601865903158159  1.0000
  C   C1        1.0  0.6569382595426285  0.43674171487081065  0.5331785385962255  1.0000
  C   C2        1.0  0.593728146929932  0.47353967832207866  0.44774010424318184  1.0000
  C   C3        1.0  0.6054766347664149  0.5276032758023359  0.32114114146330697  1.0000
  C   C4        1.0  0.5441734139584686  0.5628968360607987  0.2380981148496277  1.0000
  C   C5        1.0  0.47096751403116116  0.5443904869326224  0.28099425041972226  1.0000
  C   C6        1.0  0.45824218061594785  0.4902079280612743  0.4080613093523413  1.0000
  C   C7        1.0  0.5204027199714915  0.45491762728891044  0.4910878255604607  1.0000
  C   C8        1.0  0.3804675926719885  0.47058648305333817  0.45381730867739595  1.0000
  C   C9        1.0  0.3616684084066077  0.4977301012005008  0.5808715184184834  1.0000
  C   C10       1.0  0.2884325615725447  0.4792653118184209  0.6238082324716268  1.0000
  C   C11       1.0  0.23305279870734114  0.4334023497964546  0.5405286064659789  1.0000
  C   C12       1.0  0.1576801152610752  0.41438426190820293  0.584866034526712  1.0000
  N   N2        1.0  0.09708581533753351  0.39909499832579565  0.6205102765576251  1.0000
  C   C13       1.0  0.2511604047997569  0.40608963602978676  0.41401730068529646  1.0000
  C   C14       1.0  0.32434343005838406  0.42456929700005647  0.3708247060285239  1.0000
  H   H1        1.0  0.6619481001754928  0.5424386592792974  0.28670985665215953  1.0000
  H   H2        1.0  0.5533879281767938  0.6050268824495799  0.14033526142818187  1.0000
  H   H3        1.0  0.42433932923685375  0.5740481341976142  0.21541485062269494  1.0000
  H   H4        1.0  0.5118864695735211  0.4114023108334525  0.5887257113583508  1.0000
  H   H5        1.0  0.40334024437449795  0.5348874147372604  0.6464584382073859  1.0000
  H   H6        1.0  0.2749790783947619  0.5010779672863401  0.7218250417025673  1.0000
  H   H7        1.0  0.20877176154190272  0.37019946875158394  0.3488438119885646  1.0000
  H   H8        1.0  0.3372683315910567  0.4012209885948575  0.2731106522269111  1.0000
  C   C15       1.0  0.9023803331888273  0.02175767848507859  0.6110593667457378  1.0000
  C   C16       1.0  0.9060491164881969  0.031074022061868156  0.47457053974872004  1.0000
  C   C17       1.0  0.907046519416764  0.9186217080002635  0.4056261114310577  1.0000
  C   C18       1.0  0.9060583663742993  0.7958053952316247  0.4748883776912176  1.0000
  C   C19       1.0  0.9024588875283618  0.7844868094870758  0.6113283397991436  1.0000
  C   C20       1.0  0.9004430426500563  0.8980685203890039  0.6785990981559296  1.0000
  C   C21       1.0  0.9117094802906758  0.9282990017377906  0.2615998201016354  1.0000
  O   O1        1.0  0.9478746867820144  0.8418237537357371  0.20838594995924842  1.0000
  C   C22       1.0  0.8753326205128101  0.03599660859715105  0.17794588152016555  1.0000
  C   C23       1.0  0.9075240296213019  0.08001926036037244  0.059517495452487745  1.0000
  C   C24       1.0  0.8731280926591736  0.180664600205974  0.9790798124922908  1.0000
  C   C25       1.0  0.9067772388040889  0.22584193112285614  0.8585350901067521  1.0000
  N   N3        1.0  0.9338296524182824  0.2621549001269239  0.7616347757697026  1.0000
  C   C26       1.0  0.8059800062694824  0.2372187838236313  0.01603601712249669  1.0000
  C   C27       1.0  0.7731546516197235  0.19299929131496227  0.1326945003931328  1.0000
  C   C28       1.0  0.8073348888664812  0.09265589810684151  0.21311045654588787  1.0000
  H   H9        1.0  0.9089766968129647  0.12595702251851645  0.4218242552756628  1.0000
  H   H10       1.0  0.9073840678862061  0.7089603671390081  0.4219397479740623  1.0000
  H   H11       1.0  0.8976150897982218  0.8900823999687765  0.7838222752270078  1.0000
  H   H12       1.0  0.9017084392494734  0.4526651970270059  0.6638175276677813  1.0000
  H   H13       1.0  0.9596273663692327  0.0368607529578966  0.030435768805325388  1.0000
  H   H14       1.0  0.7789059259275815  0.3150184911719325  0.9545001966269039  1.0000
  H   H15       1.0  0.720923194526646  0.23617707187813908  0.16061708875131675  1.0000
  H   H16       1.0  0.7801813365803195  0.05847452076781878  0.30196623586537097  1.0000
  C   C29       1.0  0.9024713384983145  0.4032617096861273  0.22982039923691455  1.0000
  C   C30       1.0  0.9791637049989356  0.43404776835932735  0.22969024381492198  1.0000
  C   C31       1.0  0.01801858746165763  0.44766804901775165  0.11295124127658207  1.0000
  C   C32       1.0  0.9790322166284079  0.4337404180896905  0.994540542833755  1.0000
  C   C33       1.0  0.9023679022897215  0.402982782709002  0.992567304573737  1.0000
  C   C34       1.0  0.8645843945521081  0.38747121587246935  0.11079932559235738  1.0000
  N   N4        1.0  0.09625246948618349  0.4811331917108548  0.11622625608135605  1.0000
  C   C35       1.0  0.14941804267136805  0.4401818290262325  0.024545339518053703  1.0000
  O   O2        1.0  0.1357057501329868  0.3419074605643771  0.962302910349234  1.0000
  C   C36       1.0  0.2215540651238317  0.5090164784876285  0.0056737403757538525  1.0000
  C   C37       1.0  0.230630570990771  0.6368989689336959  0.04250673281647831  1.0000
  C   C38       1.0  0.2987909078176707  0.7010427895808327  0.02360293435316873  1.0000
  C   C39       1.0  0.35842108450465976  0.638780501067773  0.9674623943758615  1.0000
  C   C40       1.0  0.3499543315215665  0.512331766493856  0.9296531362269808  1.0000
  C   C41       1.0  0.28192203861882703  0.447728260579245  0.9482338279506964  1.0000
  H   H17       1.0  0.7576308684724576  0.3463986346338066  0.4372284617060895  1.0000
  H   H18       1.0  0.009264487866691427  0.4466434712174254  0.3205566540739646  1.0000
  H   H19       1.0  0.0081315958121102  0.4491016196536644  0.9038263769799766  1.0000
  H   H20       1.0  0.8054655971056515  0.3637216335368134  0.11003565632485124  1.0000
  H   H21       1.0  0.872717093651157  0.3928698974268079  0.6642201107066921  1.0000
  H   H22       1.0  0.11676020332766379  0.5279123205990923  0.19614731606287175  1.0000
  H   H23       1.0  0.18498835848911765  0.6883797078399556  0.08411248555170502  1.0000
  H   H24       1.0  0.30526370762393196  0.799388461348313  0.05206299569473227  1.0000
  H   H25       1.0  0.41110293717616275  0.6886675084374965  0.952885384448344  1.0000
  H   H26       1.0  0.39615219766033394  0.46425683542778917  0.8858781996760192  1.0000
  H   H27       1.0  0.2767365750742765  0.34957854501337876  0.9184604533874263  1.0000
  Zn  Zn1       1.0  0.8201012153731491  0.4048288823936026  0.6072537523794086  1.0000
  Zn  Zn2       1.0  0.9847308098694394  0.40141514986456733  0.6151330167777573  1.0000
  C   C42       1.0  0.9023852258665886  0.39786186549009783  0.8483899077572061  1.0000
  C   C43       1.0  0.9024485972775217  0.4083837680659923  0.37399707548711336  1.0000
  C   C44       1.0  0.9024408722524624  0.6403167563952434  0.6061020832122186  1.0000
  C   C45       1.0  0.9023928945449893  0.16592731799514993  0.6162849660326697  1.0000
  O   O3        1.0  0.9649170376695746  0.4088016181938012  0.42537422288488935  1.0000
  O   O4        1.0  0.9648668383775132  0.39485209177367286  0.8029925655280205  1.0000
  O   O5        1.0  0.9649109311473333  0.5906374994102497  0.6073433931484942  1.0000
  O   O6        1.0  0.9648728887369895  0.21301622104794538  0.621023295203206  1.0000
  O   O7        1.0  0.8399590803255992  0.5932278123765797  0.6013634712583233  1.0000
  O   O8        1.0  0.8399149877224364  0.3974439650720558  0.7970125749416446  1.0000
  O   O9        1.0  0.8399651872715929  0.4113934468060656  0.4193926708656652  1.0000
  O   O10       1.0  0.8399210383217719  0.21560804033584446  0.6150418405495555  1.0000
