data_image0
_chemical_formula_structural       NC5NC4H6C10H6C6BrH3Zn2C4O8
_chemical_formula_sum              "N2 C29 H15 Br1 Zn2 O8"
_cell_length_a       13.854160002989762
_cell_length_b       9.275150299802176
_cell_length_c       9.275428193871798
_cell_angle_alpha    85.84136921910526
_cell_angle_beta     89.94092944837037
_cell_angle_gamma    89.48388968248379

_space_group_name_H-M_alt    "P 1"
_space_group_IT_number       1

loop_
  _space_group_symop_operation_xyz
  'x, y, z'

loop_
  _atom_site_type_symbol
  _atom_site_label
  _atom_site_symmetry_multiplicity
  _atom_site_fract_x
  _atom_site_fract_y
  _atom_site_fract_z
  _atom_site_occupancy
  N   N1        1.0  0.9005916959017819  0.5621103096581697  0.40168367244797887  1.0000
  C   C1        1.0  0.8281515246485408  0.5867060420554833  0.342521853019079  1.0000
  C   C2        1.0  0.7380349309596461  0.617303793280348  0.2689222859578906  1.0000
  C   C3        1.0  0.6505874019235567  0.5885694563500485  0.34077925280712185  1.0000
  C   C4        1.0  0.5628925185194729  0.6173038073696917  0.26892226271487507  1.0000
  C   C5        1.0  0.47304338410327046  0.5867058956501532  0.34252194543308856  1.0000
  N   N2        1.0  0.4008181256868417  0.5621102461356232  0.40168367272109395  1.0000
  C   C6        1.0  0.562674128298897  0.6753793221743802  0.1252238562971737  1.0000
  C   C7        1.0  0.6500760395663031  0.7062635232054033  0.05325131678346451  1.0000
  C   C8        1.0  0.6498322089760253  0.7644584718650763  0.8980678779906511  1.0000
  C   C9        1.0  0.737751217410613  0.6753793198914833  0.1252237660683555  1.0000
  H   H1        1.0  0.65078240723626  0.5435088004176876  0.451999810966615  1.0000
  H   H2        1.0  0.4947117620843808  0.6965843109747867  0.06947667731844322  1.0000
  H   H3        1.0  0.7142934716373157  0.832393439981121  0.8739061262167156  1.0000
  H   H4        1.0  0.5845849939182617  0.8323934425486831  0.8739061912607098  1.0000
  H   H5        1.0  0.6504319600041022  0.6731403486743925  0.8270597765466335  1.0000
  H   H6        1.0  0.8055347205526192  0.6965844225964852  0.06947659129448258  1.0000
  C   C10       1.0  0.1532545032013223  0.13843031516394724  0.40409594530279414  1.0000
  C   C11       1.0  0.20409669134423478  0.2193266390653497  0.29508345662058155  1.0000
  C   C12       1.0  0.24666518633933532  0.15196260912908555  0.18053109473192475  1.0000
  C   C13       1.0  0.23882368351120875  0.0027207214081639243  0.1735157349402292  1.0000
  C   C14       1.0  0.1900892670806409  0.9203736908988017  0.2818806341472515  1.0000
  C   C15       1.0  0.14816458876830488  0.985779233700328  0.3992839642668293  1.0000
  C   C16       1.0  0.29752097456075915  0.236574645575645  0.06902614636846871  1.0000
  C   C17       1.0  0.34010011796335204  0.3074398991004619  0.9756732638429463  1.0000
  C   C18       1.0  0.3899583192099807  0.3904280958644153  0.8663611097256175  1.0000
  C   C19       1.0  0.4325292528822229  0.46128805696159564  0.7730261222914971  1.0000
  H   H7        1.0  0.10731242909567196  0.403179945703069  0.6329089852263372  1.0000
  H   H8        1.0  0.20873266116893058  0.3357986024105103  0.2973094527211646  1.0000
  H   H9        1.0  0.2712464506553727  0.9496358272342393  0.08487627496850658  1.0000
  H   H10       1.0  0.18714205680423568  0.8043076779166299  0.2756597008796689  1.0000
  H   H11       1.0  0.08518707316078887  0.8589379820817563  0.74163764431842  1.0000
  H   H12       1.0  0.469910083785056  0.5235091204984054  0.6910702943456419  1.0000
  C   C20       1.0  0.1510280718329846  0.5576159549528386  0.9785617521774648  1.0000
  C   C21       1.0  0.23992647825556024  0.5603019492522636  0.05159182685285281  1.0000
  C   C22       1.0  0.3264394492610126  0.5761542854008319  0.9749650708367272  1.0000
  C   C23       1.0  0.3254163335588696  0.5897410474305915  0.8243306702284312  1.0000
  C   C24       1.0  0.23821723587956886  0.5849735942036267  0.7498052693072106  1.0000
  C   C25       1.0  0.1503910757875452  0.5665936335836887  0.8248181581415848  1.0000
  Br  Br1       1.0  0.4460831016286291  0.5816699716834448  0.0764976846998977  1.0000
  H   H13       1.0  0.9183905958381795  0.6291070122378881  0.07672110588019532  1.0000
  H   H14       1.0  0.3923551771762843  0.6026342091397134  0.7646775860508797  1.0000
  H   H15       1.0  0.9934769926293436  0.6086238683634346  0.5408433620363948  1.0000
  Zn  Zn1       1.0  0.04494626053783679  0.5621065169699178  0.4016920242687152  1.0000
  Zn  Zn2       1.0  0.25646362423689406  0.5621023579766906  0.4016872215992997  1.0000
  C   C26       1.0  0.1505438314412153  0.559148975633437  0.6648902120672695  1.0000
  C   C27       1.0  0.1508683520551517  0.5650617211848626  0.1384891648342097  1.0000
  C   C28       1.0  0.14912606919767982  0.8255513595336395  0.39445168219512344  1.0000
  C   C29       1.0  0.15228605247707905  0.29865760469016395  0.40892778137196234  1.0000
  O   O1        1.0  0.23108452363942877  0.5675527157049761  0.19216047863344565  1.0000
  O   O2        1.0  0.23086445157605318  0.5566537317152642  0.6112148445524843  1.0000
  O   O3        1.0  0.22971850743208788  0.7717770417483407  0.39283380978854865  1.0000
  O   O4        1.0  0.23223039562617454  0.3524294148481175  0.4105414053033709  1.0000
  O   O5        1.0  0.06917941696805685  0.771779460101401  0.3928378405586954  1.0000
  O   O6        1.0  0.07032535075313046  0.5566578826657305  0.6112187886510758  1.0000
  O   O7        1.0  0.07054542448675405  0.5675567980003569  0.19216269064599126  1.0000
  O   O8        1.0  0.07169129645022032  0.35243348797019025  0.4105437254039783  1.0000
