data_image0
_chemical_formula_structural       NC6NCNCH5C9H6C9H9Zn2C4O8
_chemical_formula_sum              "N3 C30 H20 Zn2 O8"
_cell_length_a       14.933214217465613
_cell_length_b       9.275152443626249
_cell_length_c       10.297187173949778
_cell_angle_alpha    85.37052444745348
_cell_angle_beta     89.94016841995526
_cell_angle_gamma    90.60755784757023

_space_group_name_H-M_alt    "P 1"
_space_group_IT_number       1

loop_
  _space_group_symop_operation_xyz
  'x, y, z'

loop_
  _atom_site_type_symbol
  _atom_site_label
  _atom_site_symmetry_multiplicity
  _atom_site_fract_x
  _atom_site_fract_y
  _atom_site_fract_z
  _atom_site_occupancy
  N   N1        1.0  0.8535013654095577  0.5794840984067289  0.561471692877886  1.0000
  C   C1        1.0  0.776017580845464  0.580481046767414  0.5605759956935741  1.0000
  C   C2        1.0  0.6796272133806314  0.5817239866915171  0.5594591724127167  1.0000
  C   C3        1.0  0.6311806433928825  0.48593541278631713  0.6455367323375458  1.0000
  C   C4        1.0  0.5376542540701557  0.48701857513187846  0.644563407243094  1.0000
  C   C5        1.0  0.49167172429539574  0.583835429321751  0.5575618467733225  1.0000
  C   C6        1.0  0.39508249638574094  0.5817261439503185  0.5594572995632916  1.0000
  N   N2        1.0  0.3175854256083492  0.5799665339034497  0.5610381896457739  1.0000
  C   C7        1.0  0.5402249165735229  0.6808335517305479  0.4703974773556414  1.0000
  N   N3        1.0  0.4955668617903811  0.7814634561280318  0.37996964405483147  1.0000
  C   C8        1.0  0.6342253868754777  0.6787839987303244  0.4722393521529187  1.0000
  H   H1        1.0  0.6656876854148748  0.4104125642635604  0.7134030607384677  1.0000
  H   H2        1.0  0.5010844168312789  0.4121310365634312  0.7118587180712315  1.0000
  H   H3        1.0  0.5323840899061898  0.8525379647519082  0.3161006089224154  1.0000
  H   H4        1.0  0.42586016422134587  0.7868178252770315  0.3751581634298253  1.0000
  H   H5        1.0  0.6719147664065043  0.7529180454264461  0.40562099640661214  1.0000
  C   C9        1.0  0.08290561714983746  0.15609044313366915  0.5625835969272399  1.0000
  C   C10       1.0  0.05063573129490817  0.238781210696541  0.4522575329684366  1.0000
  C   C11       1.0  0.026690448350446  0.17329960305682168  0.33985755004852125  1.0000
  C   C12       1.0  0.034639207991602944  0.02396533946060098  0.3355580528143214  1.0000
  C   C13       1.0  0.06515826891953935  0.9395844776311008  0.44495309920394677  1.0000
  C   C14       1.0  0.08818966751867241  0.003349093244914284  0.5599375442146166  1.0000
  C   C15       1.0  0.010413861976459327  0.9567747309300055  0.21916026768591165  1.0000
  C   C16       1.0  0.9901307983569734  0.9004849641327107  0.12169537077711712  1.0000
  C   C17       1.0  0.9655213105745564  0.8321752892492493  0.0034388113712635615  1.0000
  H   H6        1.0  0.21149928749844304  0.23791103043989992  0.821888416954651  1.0000
  H   H7        1.0  0.0027743134148785482  0.23950300455831997  0.2557502314756017  1.0000
  H   H8        1.0  0.17189642181290177  0.7081609648295517  0.7372973020306816  1.0000
  H   H9        1.0  0.981888032753821  0.7154721319964475  0.015558955412340753  1.0000
  H   H10       1.0  0.8926419860913087  0.8446796676950139  0.9857237067612544  1.0000
  H   H11       1.0  0.0033644607799781004  0.8845516626236464  0.9193212401025592  1.0000
  C   C18       1.0  0.08566569931065687  0.5796677274108142  0.17980748591708393  1.0000
  C   C19       1.0  0.9951628437394691  0.6191976241951547  0.17628659224983223  1.0000
  C   C20       1.0  0.9487955618264985  0.6394497134996315  0.05786633163230337  1.0000
  C   C21       1.0  0.9948120067460554  0.6193503081109266  0.9410637177751877  1.0000
  C   C22       1.0  0.0854295871133759  0.5797718027110468  0.9427136909543106  1.0000
  C   C23       1.0  0.13026465823556221  0.5601875532975722  0.06247429928552917  1.0000
  C   C24       1.0  0.8509101985726929  0.6822038269183368  0.06349040445219467  1.0000
  C   C25       1.0  0.7878556755672358  0.6241140565954002  0.9634583301521874  1.0000
  C   C26       1.0  0.8154767090179414  0.7832951920568857  0.9518369157116364  1.0000
  H   H12       1.0  0.9602238471563392  0.6344586946787489  0.26634969113655615  1.0000
  H   H13       1.0  0.9608425006803503  0.6341842014553827  0.8484419957512599  1.0000
  H   H14       1.0  0.20008933209179072  0.5296886897391981  0.06446339787347477  1.0000
  H   H15       1.0  0.2565771686598637  0.5050006871780651  0.7386149379345195  1.0000
  H   H16       1.0  0.819448386550093  0.6959469419197966  0.15955413095113835  1.0000
  H   H17       1.0  0.8177760599396181  0.5590324338854147  0.8891083725697689  1.0000
  H   H18       1.0  0.7181355934819721  0.6045218961971794  0.9987028777175525  1.0000
  H   H19       1.0  0.8621757989452679  0.8149072250674401  0.8704285128702351  1.0000
  H   H20       1.0  0.7618991087953648  0.8567378303739918  0.9802868405235068  1.0000
  Zn  Zn1       1.0  0.9874259745562349  0.5796194490032778  0.5613541144206322  1.0000
  Zn  Zn2       1.0  0.18366072468808725  0.5798193498939053  0.5611664723096563  1.0000
  C   C27       1.0  0.08543636873825  0.5740050436764959  0.7985260297685322  1.0000
  C   C28       1.0  0.08565248469604714  0.5854355776437108  0.32399467672267646  1.0000
  C   C29       1.0  0.08718785649568805  0.8431984343802791  0.5552614211567981  1.0000
  C   C30       1.0  0.08390091914647105  0.31624045365507136  0.5672593600652829  1.0000
  O   O1        1.0  0.16011807548845858  0.5874408885600166  0.3723140255754045  1.0000
  O   O2        1.0  0.15990840606126544  0.57215036455767  0.7500638943655638  1.0000
  O   O3        1.0  0.16132175026584794  0.7895274311276126  0.5536259980494802  1.0000
  O   O4        1.0  0.1587046644167538  0.37006383222840755  0.5687518245271257  1.0000
  O   O5        1.0  0.012381967862290287  0.789374966602129  0.5537687622603586  1.0000
  O   O6        1.0  0.010968634484568314  0.5719996332503967  0.750206583902765  1.0000
  O   O7        1.0  0.011178304141157282  0.587290106768265  0.37245515352418823  1.0000
  O   O8        1.0  0.009764892971297241  0.3699130401316759  0.5688930498974677  1.0000
