data_image0
_chemical_formula_structural       NC6NC2H4C6BrH3C6SCH6Zn2C4O8
_chemical_formula_sum              "N2 C25 H13 Br1 S1 Zn2 O8"
_cell_length_a       14.927258858638513
_cell_length_b       9.276564384272257
_cell_length_c       10.302812801239593
_cell_angle_alpha    85.51203806162957
_cell_angle_beta     89.99986339820808
_cell_angle_gamma    90.58593300640023

_space_group_name_H-M_alt    "P 1"
_space_group_IT_number       1

loop_
  _space_group_symop_operation_xyz
  'x, y, z'

loop_
  _atom_site_type_symbol
  _atom_site_label
  _atom_site_symmetry_multiplicity
  _atom_site_fract_x
  _atom_site_fract_y
  _atom_site_fract_z
  _atom_site_occupancy
  N   N1        1.0  0.8536007532781343  0.5782294757616675  0.566742196329793  1.0000
  C   C1        1.0  0.7760742619292689  0.5782294472521752  0.5667422058877636  1.0000
  C   C2        1.0  0.6796417551165171  0.578229562349651  0.5667421608957837  1.0000
  C   C3        1.0  0.6324390098317234  0.5545389312067361  0.4526656022753197  1.0000
  C   C4        1.0  0.538727698651299  0.554538956842441  0.452665482062129  1.0000
  C   C5        1.0  0.49182568999644216  0.5782293848007598  0.5667421778084285  1.0000
  C   C6        1.0  0.3953931161921735  0.5782294999011994  0.5667421328111113  1.0000
  N   N2        1.0  0.3178666248433074  0.5782294713917073  0.5667421423690817  1.0000
  C   C7        1.0  0.5390283682897193  0.6019200159466394  0.6808187364235548  1.0000
  C   C8        1.0  0.6327396794701431  0.601919990310934  0.6808188566367458  1.0000
  H   H1        1.0  0.6680182097809424  0.5361062844792519  0.36390749248198784  1.0000
  H   H2        1.0  0.5029145555252235  0.536106482015576  0.3639074878871443  1.0000
  H   H3        1.0  0.5034492352626072  0.6203526523566469  0.7695769435672568  1.0000
  H   H4        1.0  0.6685528232123811  0.6203525624660065  0.7695769498308955  1.0000
  C   C9        1.0  0.08303894557628458  0.1547484991661589  0.567074173156427  1.0000
  C   C10       1.0  0.07155871445089007  0.23824779394777357  0.4484145934065791  1.0000
  C   C11       1.0  0.06841565571873076  0.17325893066880305  0.3308633527240876  1.0000
  C   C12       1.0  0.07673292434244572  0.023851769779597447  0.3297396362162415  1.0000
  C   C13       1.0  0.08663497015725559  0.9386591460979283  0.4466048828691645  1.0000
  C   C14       1.0  0.0884369540113632  0.001699301470562844  0.5664213775050088  1.0000
  Br  Br1       1.0  0.07309178215481585  0.9354940033896644  0.16843879532229544  1.0000
  H   H5        1.0  0.06036546151361069  0.23947916817026213  0.24043021755573182  1.0000
  H   H6        1.0  0.09077990443115153  0.822419163629658  0.4438058024188892  1.0000
  H   H7        1.0  0.13785564173836673  0.7037666277808053  0.7686254855863361  1.0000
  C   C15       1.0  0.08573797468604116  0.5782239227001091  0.18549933678859531  1.0000
  C   C16       1.0  0.05644291079924925  0.7220352322291705  0.17419122224514139  1.0000
  C   C17       1.0  0.041634302291916586  0.7933785004027647  0.05158924017695199  1.0000
  C   C18       1.0  0.056442829072683075  0.7220350808482536  0.9390400526725724  1.0000
  C   C19       1.0  0.08573791651703827  0.5782239129817588  0.947996240425629  1.0000
  C   C20       1.0  0.10021461453300984  0.5070084342477893  0.07176527586215875  1.0000
  S   S1        1.0  0.004390191823069993  0.9772254885341882  0.03863622395869505  1.0000
  C   C21       1.0  0.8862322899739348  0.9268408794899504  0.04218720154448884  1.0000
  H   H8        1.0  0.044805690780430396  0.7791574947123358  0.26026624955218414  1.0000
  H   H9        1.0  0.04480551010169136  0.7791572869778964  0.8449159367302054  1.0000
  H   H10       1.0  0.12279489005863554  0.3960708367509158  0.07958131429903559  1.0000
  H   H11       1.0  0.8699380633601336  0.8626874416677696  0.9585903243607953  1.0000
  H   H12       1.0  0.8699384563297561  0.8626888990750711  0.1348250152710171  1.0000
  H   H13       1.0  0.8454054365724569  0.026378233856456646  0.035173985682486864  1.0000
  Zn  Zn1       1.0  0.9875778384680509  0.5782256103123924  0.5667496854831169  1.0000
  Zn  Zn2       1.0  0.18388947525054178  0.5782215246434467  0.5667453122292512  1.0000
  C   C22       1.0  0.08569931589181962  0.5724789353036311  0.8038724397023544  1.0000
  C   C23       1.0  0.08577015314062941  0.5839700191690786  0.32962268398609745  1.0000
  C   C24       1.0  0.08741200155568057  0.8416075939879206  0.5613712678447422  1.0000
  C   C25       1.0  0.08405738944669433  0.31483962788972464  0.5721239263972895  1.0000
  O   O1        1.0  0.16028015549841948  0.5858906197735236  0.37799014111037765  1.0000
  O   O2        1.0  0.16018529657616665  0.5705541458642334  0.7555012904900824  1.0000
  O   O3        1.0  0.16156730762407445  0.7878789413690962  0.5596798773457583  1.0000
  O   O4        1.0  0.15889807752840354  0.36856583458613623  0.5738114569043311  1.0000
  O   O5        1.0  0.012569169198671131  0.7878813003726669  0.559683540802699  1.0000
  O   O6        1.0  0.011187169189319952  0.5705582374658325  0.755504883388105  1.0000
  O   O7        1.0  0.011282027850976876  0.5858946611218747  0.37799217313960853  1.0000
  O   O8        1.0  0.009899949811551957  0.36856986561997496  0.5738135862785954  1.0000
