data_image0
_chemical_formula_structural       NC8NH4C7NH5C7NH4Zn2C4O8
_chemical_formula_sum              "N4 C26 H13 Zn2 O8"
_cell_length_a       13.859017124695912
_cell_length_b       9.275154477615127
_cell_length_c       9.275157849593905
_cell_angle_alpha    86.33461140486662
_cell_angle_beta     89.74086887057864
_cell_angle_gamma    89.43373790894346

_space_group_name_H-M_alt    "P 1"
_space_group_IT_number       1

loop_
  _space_group_symop_operation_xyz
  'x, y, z'

loop_
  _atom_site_type_symbol
  _atom_site_label
  _atom_site_symmetry_multiplicity
  _atom_site_fract_x
  _atom_site_fract_y
  _atom_site_fract_z
  _atom_site_occupancy
  N   N1        1.0  0.9030465572735393  0.5626400750584306  0.4165666164798494  1.0000
  C   C1        1.0  0.8310170350778883  0.5392450561322377  0.36032000792547647  1.0000
  C   C2        1.0  0.7414165609174032  0.510145066495169  0.2903564573515285  1.0000
  C   C3        1.0  0.6534072828440649  0.5385145961856526  0.35856211946934513  1.0000
  C   C4        1.0  0.5661862347266802  0.5101462864798783  0.2903558829852646  1.0000
  C   C5        1.0  0.5671569879073944  0.4534007476003741  0.15392305215339985  1.0000
  C   C6        1.0  0.6549821898534193  0.4251402585103413  0.08597993124539594  1.0000
  C   C7        1.0  0.7420223587059734  0.45339840998870545  0.15392422103993875  1.0000
  C   C8        1.0  0.47577719176022476  0.5392459776931673  0.36031951364515985  1.0000
  N   N2        1.0  0.40309768139203256  0.5626403955198787  0.4165664017769244  1.0000
  H   H1        1.0  0.6527970941219962  0.5824378404246897  0.4641644025048422  1.0000
  H   H2        1.0  0.5001717418989975  0.4310728356591129  0.10023773762957111  1.0000
  H   H3        1.0  0.6555912038950036  0.38130671700433044  0.9805915136450661  1.0000
  H   H4        1.0  0.8096279812728211  0.43106840738795005  0.10023989728945804  1.0000
  C   C9        1.0  0.15587404687809614  0.13923489629846886  0.4148988141231844  1.0000
  C   C10       1.0  0.12978154868706437  0.22119029742272356  0.2878306497841989  1.0000
  C   C11       1.0  0.0958199368089121  0.1539930026607379  0.16749347910212345  1.0000
  C   C12       1.0  0.0873898871065668  0.003923643346348758  0.1728072417026243  1.0000
  C   C13       1.0  0.1143856180898466  0.9207326753540493  0.29697898785268295  1.0000
  C   C14       1.0  0.1502794623626107  0.9860346503900538  0.4182466872356634  1.0000
  C   C15       1.0  0.06844847180275404  0.23951546683852087  0.03889381239982859  1.0000
  N   N3        1.0  0.04644941474162945  0.308259939219351  0.935532620879354  1.0000
  H   H5        1.0  0.17349019173975844  0.21931263160214878  0.768654654125686  1.0000
  H   H6        1.0  0.1337352880602367  0.3381085213192759  0.28355450548425964  1.0000
  H   H7        1.0  0.06077412309643003  0.9509064030269697  0.08032056845594404  1.0000
  H   H8        1.0  0.10931930056023463  0.8042638543388266  0.2968521586401558  1.0000
  H   H9        1.0  0.16623906866728455  0.6895469789542373  0.6552731609119076  1.0000
  C   C16       1.0  0.15438399838416328  0.558559225572187  0.9933588454695621  1.0000
  C   C17       1.0  0.23723905347162977  0.6055628868703786  0.06324067455555493  1.0000
  C   C18       1.0  0.31506958744273317  0.6639041868353293  0.9835931316607658  1.0000
  C   C19       1.0  0.31095076239020525  0.676169331352436  0.8329826764706052  1.0000
  C   C20       1.0  0.23008718376369464  0.627998119265671  0.7617546888330038  1.0000
  C   C21       1.0  0.15176953275882063  0.566710259835504  0.8397866422065432  1.0000
  C   C22       1.0  0.3988570793714976  0.712915792125989  0.056790490939749645  1.0000
  N   N4        1.0  0.466200773271924  0.7523079072015404  0.11562880009022881  1.0000
  H   H10       1.0  0.919936890941891  0.5099448013249515  0.10100434840055406  1.0000
  H   H11       1.0  0.37073310951271954  0.7217767468809878  0.7703401658356377  1.0000
  H   H12       1.0  0.22982364599574412  0.6355784875531101  0.6447202182035645  1.0000
  H   H13       1.0  0.9949687665385611  0.527925068483108  0.5622268638363606  1.0000
  Zn  Zn1       1.0  0.04735051271617374  0.5626363982058906  0.4165748662826889  1.0000
  Zn  Zn2       1.0  0.2587937595084695  0.5626324245545993  0.4165699258866249  1.0000
  C   C23       1.0  0.15229949570750365  0.559425621197978  0.6797709308941757  1.0000
  C   C24       1.0  0.15384707301466016  0.5658450221181726  0.15337400986601724  1.0000
  C   C25       1.0  0.1513497266479269  0.8259161469874119  0.41187082495157123  1.0000
  C   C26       1.0  0.1547967811308815  0.29935276478266704  0.42127418579740206  1.0000
  O   O1        1.0  0.2339085277257862  0.568282403766326  0.2070746610709382  1.0000
  O   O2        1.0  0.23271858131573353  0.5569841319326172  0.6260661108771053  1.0000
  O   O3        1.0  0.23195054446456997  0.7721786161915711  0.4097348858431247  1.0000
  O   O4        1.0  0.23467649269132715  0.3530879287823635  0.423405778088467  1.0000
  O   O5        1.0  0.0714677073781258  0.7721808939809796  0.40973901407495883  1.0000
  O   O6        1.0  0.07223573301745523  0.5569881412709503  0.6260701691142716  1.0000
  O   O7        1.0  0.07342568517576042  0.5682863461742822  0.20707698638709693  1.0000
  O   O8        1.0  0.07419364987173437  0.35309186191818065  0.4234082114151898  1.0000
