data_image0
_chemical_formula_structural       NC12NC2H8C9NC2H9C9NC2H8Zn2C4O8
_chemical_formula_sum              "N4 C40 H25 Zn2 O8"
_cell_length_a       17.80743265337812
_cell_length_b       9.273595471060368
_cell_length_c       9.273598843048154
_cell_angle_alpha    85.20195434157942
_cell_angle_beta     91.13569736745053
_cell_angle_gamma    88.84631592348521

_space_group_name_H-M_alt    "P 1"
_space_group_IT_number       1

loop_
  _space_group_symop_operation_xyz
  'x, y, z'

loop_
  _atom_site_type_symbol
  _atom_site_label
  _atom_site_symmetry_multiplicity
  _atom_site_fract_x
  _atom_site_fract_y
  _atom_site_fract_z
  _atom_site_occupancy
  N   N1        1.0  0.704559693799737  0.5743287652894153  0.44795558423820264  1.0000
  C   C1        1.0  0.6538337682801768  0.6077455553581301  0.3716659172623571  1.0000
  C   C2        1.0  0.5907256809874141  0.6493135853307699  0.27677117740640544  1.0000
  C   C3        1.0  0.6026281326862353  0.7103941148264288  0.13615979251685295  1.0000
  C   C4        1.0  0.5414269283749454  0.7502716767141435  0.043925093322535025  1.0000
  C   C5        1.0  0.46816999255168334  0.7293669665004214  0.09156893060480398  1.0000
  C   C6        1.0  0.4552896377441367  0.6681504902915056  0.232700306126582  1.0000
  C   C7        1.0  0.5173482035526971  0.6282766833230157  0.32491666355335536  1.0000
  C   C8        1.0  0.3774598952316612  0.6459839279693929  0.28352065715949504  1.0000
  C   C9        1.0  0.35801513928500756  0.6750963750745191  0.424722096403507  1.0000
  C   C10       1.0  0.2847278519604639  0.6542374943363201  0.4724110646107482  1.0000
  C   C11       1.0  0.22994057842589896  0.603976601915742  0.3798293087257063  1.0000
  C   C12       1.0  0.1545144803212671  0.5824917531834266  0.4290740734679941  1.0000
  N   N2        1.0  0.09387723886338871  0.5652193803426011  0.46866347656734614  1.0000
  C   C13       1.0  0.24869271740967153  0.5746719141800961  0.2392309290529573  1.0000
  C   C14       1.0  0.3219280638231686  0.5955493990382408  0.1912576605690222  1.0000
  H   H1        1.0  0.6591406777524801  0.7271524743294087  0.09791766752837328  1.0000
  H   H2        1.0  0.5507580401416886  0.7978625252805366  0.935341895539024  1.0000
  H   H3        1.0  0.4216115954380018  0.7628423447489079  0.018732683762315183  1.0000
  H   H4        1.0  0.5087241861436854  0.57914823702709  0.43335956988880553  1.0000
  H   H5        1.0  0.3992140987445615  0.7158321758784505  0.4976359905840791  1.0000
  H   H6        1.0  0.2707710747086327  0.6776656034132  0.5813427523519623  1.0000
  H   H7        1.0  0.2067677387618201  0.5353401592975242  0.1667777231997274  1.0000
  H   H8        1.0  0.33536437509397216  0.5704131749204615  0.0826607798077621  1.0000
  C   C15       1.0  0.9014838795029879  0.14618864695300893  0.45777099639931024  1.0000
  C   C16       1.0  0.8936102769041926  0.23105735827044782  0.3254303042323672  1.0000
  C   C17       1.0  0.8791093560122226  0.16768305346312792  0.1968770195578846  1.0000
  C   C18       1.0  0.87211769031042  0.017374843543482846  0.19708631929099352  1.0000
  C   C19       1.0  0.881149205375751  0.9313190666578818  0.32852644923150165  1.0000
  C   C20       1.0  0.896960234669946  0.99334813338628  0.4588608532890375  1.0000
  C   C21       1.0  0.8561700935222738  0.9502699525656274  0.06009653226456679  1.0000
  C   C22       1.0  0.8930151193545666  0.8209466904682055  0.030302938207897208  1.0000
  C   C23       1.0  0.877155979055549  0.7598617935315907  0.9007270889390773  1.0000
  N   N3        1.0  0.8263185599377295  0.8250988746178151  0.8039162033231704  1.0000
  C   C24       1.0  0.7897590415978187  0.9501499189676369  0.8294527851305262  1.0000
  C   C25       1.0  0.8039592547832273  0.015017692041932918  0.957578978083229  1.0000
  H   H9        1.0  0.9530577677012921  0.40698504014004455  0.6770147946577383  1.0000
  H   H10       1.0  0.8970830495696019  0.34780550318684156  0.32162440074552445  1.0000
  H   H11       1.0  0.873620312341651  0.23657649800469005  0.09686746046330907  1.0000
  H   H12       1.0  0.876513669991052  0.8149247011864141  0.32931149707125007  1.0000
  H   H13       1.0  0.9779878289125831  0.8601636771755873  0.7815189634008113  1.0000
  H   H14       1.0  0.9343943594960457  0.7686382776531723  0.10541949198016454  1.0000
  H   H15       1.0  0.905486238670161  0.6605827493467302  0.8769656586134033  1.0000
  H   H16       1.0  0.7494582606650808  0.9991967723967063  0.7503384373986841  1.0000
  H   H17       1.0  0.7737181014166931  0.11372370893188123  0.9770972413191176  1.0000
  C   C26       1.0  0.9007192411793831  0.5730327591029178  0.03456195226637049  1.0000
  C   C27       1.0  0.8500227194805297  0.6652925975635193  0.09841018907223531  1.0000
  C   C28       1.0  0.7956817200311673  0.7462966409002525  0.014879019675312582  1.0000
  C   C29       1.0  0.790553829345753  0.7373446963592918  0.8648716140552151  1.0000
  C   C30       1.0  0.8418061387607301  0.6472358535551697  0.7996469414784975  1.0000
  C   C31       1.0  0.8977248685065805  0.5665040470387057  0.8820698929894717  1.0000
  C   C32       1.0  0.7322784427220617  0.8230422334964513  0.7763058072361972  1.0000
  C   C33       1.0  0.7495801815885065  0.892365183294813  0.6407751585974327  1.0000
  C   C34       1.0  0.693882685163666  0.9724507801202796  0.5594204225245862  1.0000
  N   N4        1.0  0.6232783864797286  0.98326686988087  0.611002466083467  1.0000
  C   C35       1.0  0.6047464780522134  0.9175891262208401  0.741564203419796  1.0000
  C   C36       1.0  0.6587192972632476  0.8365367644228994  0.8265315952231385  1.0000
  H   H18       1.0  0.8513154082073021  0.6725967589773771  0.21441259595139117  1.0000
  H   H19       1.0  0.7577132401279579  0.8165968027074645  0.0678697902785188  1.0000
  H   H20       1.0  0.8386252776990017  0.6408016773069248  0.6835560650912034  1.0000
  H   H21       1.0  0.06730311545802635  0.4193043930572642  0.7977729754853429  1.0000
  H   H22       1.0  0.8058008222565938  0.8864042775961349  0.59898791552073  1.0000
  H   H23       1.0  0.7068969903754765  0.026411773400103474  0.45523100135178174  1.0000
  H   H24       1.0  0.5479731915751077  0.9279918782593031  0.7794046410380333  1.0000
  H   H25       1.0  0.642846354377191  0.7834486369007116  0.9295373878093227  1.0000
  Zn  Zn1       1.0  0.8169083220937636  0.5716960783848527  0.4539397487194789  1.0000
  Zn  Zn2       1.0  0.9815286293175759  0.5678402104520799  0.4626910673040066  1.0000
  C   C37       1.0  0.8983198994129967  0.5619917658632703  0.7218652769661402  1.0000
  C   C38       1.0  0.9001188394281741  0.577546299786467  0.19476577859589383  1.0000
  C   C39       1.0  0.8978317691707658  0.8332613685360806  0.4529043156827508  1.0000
  C   C40       1.0  0.9006069224790977  0.3062749648133809  0.46372681159729723  1.0000
  O   O1        1.0  0.9623899213838617  0.5775915105642315  0.2518527178912162  1.0000
  O   O2        1.0  0.9609918288637812  0.5590189555683807  0.6714199691897977  1.0000
  O   O3        1.0  0.9605968100587886  0.7780725985660928  0.4542320471691823  1.0000
  O   O4        1.0  0.9627848843422678  0.35853788003437276  0.4690405287420565  1.0000
  O   O5        1.0  0.8356520108922587  0.7809984101200078  0.44759028428744513  1.0000
  O   O6        1.0  0.8360470207117454  0.5619465007400184  0.6647781315960626  1.0000
  O   O7        1.0  0.8374451196799173  0.5805190188339557  0.24520914530184523  1.0000
  O   O8        1.0  0.8378400823080965  0.36146537715369054  0.46239706432847744  1.0000
