data_image0
_chemical_formula_structural       NC12NC2H8C6NCOCH9C6SCNH5Zn2C4O8
_chemical_formula_sum              "N4 C33 H22 O9 S1 Zn2"
_cell_length_a       17.80743265337812
_cell_length_b       10.300268703208218
_cell_length_c       9.275272990362724
_cell_angle_alpha    85.0438519847605
_cell_angle_beta     91.20895717805207
_cell_angle_gamma    89.41550465668445

_space_group_name_H-M_alt    "P 1"
_space_group_IT_number       1

loop_
  _space_group_symop_operation_xyz
  'x, y, z'

loop_
  _atom_site_type_symbol
  _atom_site_label
  _atom_site_symmetry_multiplicity
  _atom_site_fract_x
  _atom_site_fract_y
  _atom_site_fract_z
  _atom_site_occupancy
  N   N1        1.0  0.7116351920040809  0.4191323670422997  0.4459763207102593  1.0000
  C   C1        1.0  0.6610302369150716  0.44930463034680473  0.36964658602482037  1.0000
  C   C2        1.0  0.5980726306377546  0.4868367029882077  0.27470200470472017  1.0000
  C   C3        1.0  0.6101954109247409  0.5419880947805442  0.13401743477744432  1.0000
  C   C4        1.0  0.5491377597712495  0.5779952059855655  0.041734974831380896  1.0000
  C   C5        1.0  0.47580509322103115  0.5591202836977016  0.0894038811097646  1.0000
  C   C6        1.0  0.4627040589775547  0.5038459043634804  0.2306085952706516  1.0000
  C   C7        1.0  0.5246190786368885  0.46784219469951577  0.32287270938511137  1.0000
  C   C8        1.0  0.384794217094249  0.48383130765179555  0.2814555150321838  1.0000
  C   C9        1.0  0.36559481239228725  0.5098791349987835  0.42261273296348817  1.0000
  C   C10       1.0  0.292232061180729  0.49104542083364927  0.47032670849865515  1.0000
  C   C11       1.0  0.2371231060143  0.4459021203003087  0.37781451635584395  1.0000
  C   C12       1.0  0.16161936340027014  0.4265030698227259  0.4270850332957248  1.0000
  N   N2        1.0  0.100919700930705  0.41090753852773965  0.46669513943262686  1.0000
  C   C13       1.0  0.2556293084871565  0.41968052931391653  0.23726058113380777  1.0000
  C   C14       1.0  0.32894002314729337  0.4385313184437576  0.18926229386206184  1.0000
  H   H1        1.0  0.6667686333869417  0.5571193204878577  0.09575521527282826  1.0000
  H   H2        1.0  0.5586411968915556  0.6209652549651958  0.9330947112902163  1.0000
  H   H3        1.0  0.42937029633340346  0.5893413352768684  0.0165273354085842  1.0000
  H   H4        1.0  0.5158147092525426  0.4234880216223935  0.4313746888473552  1.0000
  H   H5        1.0  0.4070530601604749  0.5464696266120299  0.4954703418335591  1.0000
  H   H6        1.0  0.2784695618126666  0.5120126774672356  0.5792230201339506  1.0000
  H   H7        1.0  0.21345259513612252  0.384353559130179  0.16486181265915567  1.0000
  H   H8        1.0  0.342173470467369  0.41602587803675783  0.08070299718208163  1.0000
  C   C15       1.0  0.9063573294597375  0.03367056273144575  0.4563484871848092  1.0000
  C   C16       1.0  0.9194556791109106  0.04400147277294077  0.3070271009255505  1.0000
  C   C17       1.0  0.9270797186397414  0.931882701542716  0.23214672912272505  1.0000
  C   C18       1.0  0.9192856464671528  0.8088452532005299  0.3070540546258045  1.0000
  C   C19       1.0  0.9062047063206337  0.7963591451013102  0.45633577327460584  1.0000
  C   C20       1.0  0.9000921290515347  0.9093728404566561  0.5302975898388926  1.0000
  N   N3        1.0  0.9393216188560108  0.9408971219265434  0.0788430772786757  1.0000
  C   C21       1.0  0.98364370487752  0.03969979203480035  0.003656041196896891  1.0000
  O   O1        1.0  0.02586415653781083  0.11126052541088893  0.07254618858842687  1.0000
  C   C22       1.0  0.9841433703898104  0.05189163292158971  0.8420155552805544  1.0000
  H   H9        1.0  0.900286069172432  0.3572172620835165  0.5127235552093  1.0000
  H   H10       1.0  0.9222418416929704  0.1392699156038906  0.24846473673477765  1.0000
  H   H11       1.0  0.9241197406279765  0.7228619167232867  0.24823656960601204  1.0000
  H   H12       1.0  0.8900102168285542  0.900595120417776  0.6454720755264227  1.0000
  H   H13       1.0  0.9001383757884023  0.464270169966679  0.5125021361496798  1.0000
  H   H14       1.0  0.9187996279066875  0.8663788520819397  0.01976418604417685  1.0000
  H   H15       1.0  0.926772100089632  0.03640188152780865  0.7980463777235043  1.0000
  H   H16       1.0  0.0028879343778713856  0.15049819383679525  0.8009317335931344  1.0000
  H   H17       1.0  0.023029520101248466  0.9776680239826913  0.8043580246588728  1.0000
  C   C23       1.0  0.9075094324061015  0.4184393934243512  0.032602917872196935  1.0000
  C   C24       1.0  0.8502602304051603  0.4866980485018238  0.09730920345755445  1.0000
  C   C25       1.0  0.7904170866485988  0.5437417621568907  0.014477558153990874  1.0000
  C   C26       1.0  0.7867340128691046  0.5338710603577617  0.8654513891524727  1.0000
  C   C27       1.0  0.8435680597409363  0.46792696129863126  0.7987939165424565  1.0000
  C   C28       1.0  0.9050526285242478  0.41159027722558106  0.8800813373973728  1.0000
  S   S1        1.0  0.7092525781486839  0.6058603307828049  0.7596618766960179  1.0000
  C   C29       1.0  0.7556909191813999  0.7556254451501117  0.7258885094831982  1.0000
  N   N4        1.0  0.7861550877777048  0.8537999673212201  0.7037636869471158  1.0000
  H   H18       1.0  0.026607948693049055  0.3568181072653247  0.3244790363884318  1.0000
  H   H19       1.0  0.8508074055699467  0.49333642176233516  0.21325085009455846  1.0000
  H   H20       1.0  0.7465547014412448  0.5948081983556268  0.06662897893210618  1.0000
  H   H21       1.0  0.8406176552649592  0.46360774845777086  0.6824968405703196  1.0000
  H   H22       1.0  0.08365648608761633  0.32767373686510787  0.7923678286085553  1.0000
  Zn  Zn1       1.0  0.8239742721887323  0.4167553248677087  0.4519636430350129  1.0000
  Zn  Zn2       1.0  0.9885805862509842  0.41327389266715575  0.46071958722933215  1.0000
  C   C30       1.0  0.9055163653389218  0.40771154157933975  0.7198897831637792  1.0000
  C   C31       1.0  0.9070402898581872  0.4223192753289706  0.19279368431597166  1.0000
  C   C32       1.0  0.9062463688075701  0.6522413022130369  0.4505878474148646  1.0000
  C   C33       1.0  0.906310230310081  0.1777879550392969  0.4620956940341521  1.0000
  O   O2        1.0  0.9693500808006756  0.4222945483132672  0.24987800417930606  1.0000
  O   O3        1.0  0.9681389594390437  0.40509296579464255  0.6694506069809414  1.0000
  O   O4        1.0  0.9687276000342359  0.6025538456915485  0.4519873436912807  1.0000
  O   O5        1.0  0.9687613843482884  0.2248336797684698  0.46734115628795175  1.0000
  O   O6        1.0  0.8437934179193934  0.6051955389559113  0.44534207098082895  1.0000
  O   O7        1.0  0.8432047772316243  0.40773621990449943  0.66280525730566  1.0000
  O   O8        1.0  0.8444159036816187  0.4249377711892308  0.24323091963423618  1.0000
  O   O9        1.0  0.8438272069143915  0.22747689248184175  0.4606941799283331  1.0000
