data_image0
_chemical_formula_structural       NC6NC2H4C6NH7C9H9Zn2C4O8
_chemical_formula_sum              "N3 C27 H20 Zn2 O8"
_cell_length_a       14.927258858638513
_cell_length_b       9.274771166103582
_cell_length_c       9.273585224739813
_cell_angle_alpha    86.03363261937257
_cell_angle_beta     90.10206986439101
_cell_angle_gamma    90.59705168739299

_space_group_name_H-M_alt    "P 1"
_space_group_IT_number       1

loop_
  _space_group_symop_operation_xyz
  'x, y, z'

loop_
  _atom_site_type_symbol
  _atom_site_label
  _atom_site_symmetry_multiplicity
  _atom_site_fract_x
  _atom_site_fract_y
  _atom_site_fract_z
  _atom_site_occupancy
  N   N1        1.0  0.851922335183038  0.5625175728484542  0.4073121988499879  1.0000
  C   C1        1.0  0.7743958438432078  0.5625175444390107  0.4073122094888605  1.0000
  C   C2        1.0  0.677963336985632  0.5625176590605061  0.40731215942759214  1.0000
  C   C3        1.0  0.6306090927212695  0.537537216481359  0.28069320284580135  1.0000
  C   C4        1.0  0.5368977813872667  0.5375372407711746  0.2806930693656766  1.0000
  C   C5        1.0  0.4901472718662992  0.5625174816552263  0.40731217837803935  1.0000
  C   C6        1.0  0.3937146980171988  0.5625175962796263  0.40731212831084235  1.0000
  N   N2        1.0  0.31618820667736885  0.562517567870183  0.40731213894971524  1.0000
  C   C7        1.0  0.5375014491391374  0.5874979242372782  0.5339311349539015  1.0000
  C   C8        1.0  0.63121276047314  0.5874978999474627  0.533931268434026  1.0000
  H   H1        1.0  0.6660704177722926  0.5181010224367486  0.18217638757012478  1.0000
  H   H2        1.0  0.5009667635342808  0.5181012199733168  0.1821763822746223  1.0000
  H   H3        1.0  0.5020401911358451  0.6069341090570788  0.6324480583134187  1.0000
  H   H4        1.0  0.6671437790829987  0.6069340192132786  0.6324480653555296  1.0000
  C   C9        1.0  0.08131016279322073  0.1389289717086275  0.40809777693936544  1.0000
  C   C10       1.0  0.060544528593920593  0.22093137667756427  0.27920928396314704  1.0000
  C   C11       1.0  0.0481420513129536  0.15456735589795637  0.1495030486560942  1.0000
  C   C12       1.0  0.056551070422463656  0.004813935115091766  0.14774583193384783  1.0000
  C   C13       1.0  0.07565806672285484  0.9214741567420396  0.27486377397041295  1.0000
  C   C14       1.0  0.08680892340796191  0.9860952122527848  0.4065390975521348  1.0000
  N   N3        1.0  0.027925153132672076  0.2396549013038807  0.019197996393058858  1.0000
  H   H5        1.0  0.1824995586747742  0.22178631664212545  0.723527567767825  1.0000
  H   H6        1.0  0.056026943740474816  0.33751847357205156  0.2786556452094968  1.0000
  H   H7        1.0  0.047432612428929495  0.9523152333486121  0.04794996992453716  1.0000
  H   H8        1.0  0.0796011920740845  0.8052683041913142  0.2707359954018987  1.0000
  H   H9        1.0  0.151335657671652  0.691204011920048  0.6211430391613881  1.0000
  H   H10       1.0  0.021752872368832055  0.35172832835491175  0.019151184177125694  1.0000
  H   H11       1.0  0.018893812757542656  0.1911974311052902  0.9217724048563762  1.0000
  C   C15       1.0  0.08356274471073832  0.5582222996257412  0.9840747922146811  1.0000
  C   C16       1.0  0.16330140107961413  0.526095643056496  0.06009067189898931  1.0000
  C   C17       1.0  0.2443367135871749  0.5069516893599385  0.9878655174954402  1.0000
  C   C18       1.0  0.24491012571162563  0.5207453891100764  0.8357809125152191  1.0000
  C   C19       1.0  0.16611124671073085  0.5501599831805726  0.7587663033330634  1.0000
  C   C20       1.0  0.08455633193244522  0.5668018397868919  0.8305620472263795  1.0000
  C   C21       1.0  0.3271550462028656  0.47387240078423165  0.07944158243728383  1.0000
  C   C22       1.0  0.3965626309242709  0.374900966407524  0.01938573547109846  1.0000
  C   C23       1.0  0.4161827005709653  0.5361844676251284  0.022992869693082788  1.0000
  H   H12       1.0  0.935573506173771  0.5393847496481996  0.2653936791754472  1.0000
  H   H13       1.0  0.16282950648370542  0.5191343162822115  0.17727298884142884  1.0000
  H   H14       1.0  0.3055854530852631  0.5077120573541218  0.774870562822958  1.0000
  H   H15       1.0  0.9519618337634169  0.6692933373163199  0.5417033601378402  1.0000
  H   H16       1.0  0.3212067147728599  0.46456947639014073  0.19922054829153835  1.0000
  H   H17       1.0  0.3842724622581821  0.3377825247044901  0.9098761946787262  1.0000
  H   H18       1.0  0.433303673489037  0.30736473896447736  0.10303128904649395  1.0000
  H   H19       1.0  0.41576840678186233  0.5968593624205789  0.9156620839600031  1.0000
  H   H20       1.0  0.4643826313701449  0.5629374849071545  0.10875113491356592  1.0000
  Zn  Zn1       1.0  0.9858994296686707  0.5625137906501515  0.40732051675294767  1.0000
  Zn  Zn2       1.0  0.18221106026213485  0.5625096546992707  0.4073156658011585  1.0000
  C   C24       1.0  0.08432922091563923  0.5594336935645563  0.6705684067986349  1.0000
  C   C25       1.0  0.0837834247114404  0.565591573197677  0.14406791381622042  1.0000
  C   C26       1.0  0.08575817708674555  0.8259045165134242  0.4010902852456184  1.0000
  C   C27       1.0  0.08235439039437331  0.2991190179919994  0.413546115400631  1.0000
  O   O1        1.0  0.15835668681304382  0.5680569061842096  0.19776123764849385  1.0000
  O   O2        1.0  0.15875193654242303  0.5569641290984382  0.6168709883136281  1.0000
  O   O3        1.0  0.15990483419588775  0.772142703823878  0.39926549582237963  1.0000
  O   O4        1.0  0.15720372211184852  0.35287834068357915  0.41536662205590136  1.0000
  O   O5        1.0  0.010906700827433061  0.7721451046687482  0.3992695604922761  1.0000
  O   O6        1.0  0.009753814328405282  0.556968262203022  0.6168749729462017  1.0000
  O   O7        1.0  0.009358562298378288  0.5680609714595408  0.1977634895293985  1.0000
  O   O8        1.0  0.008205597653389908  0.35288239673700583  0.4153689820147186  1.0000
