data_image0
_chemical_formula_structural       NC8NH4C7NH3C6ClH4Zn2C4O8
_chemical_formula_sum              "N3 C25 H11 Cl1 Zn2 O8"
_cell_length_a       14.927258825633057
_cell_length_b       9.275154477615127
_cell_length_c       9.276548810779733
_cell_angle_alpha    86.30571482512589
_cell_angle_beta     89.72476465157726
_cell_angle_gamma    89.43370909507247

_space_group_name_H-M_alt    "P 1"
_space_group_IT_number       1

loop_
  _space_group_symop_operation_xyz
  'x, y, z'

loop_
  _atom_site_type_symbol
  _atom_site_label
  _atom_site_symmetry_multiplicity
  _atom_site_fract_x
  _atom_site_fract_y
  _atom_site_fract_z
  _atom_site_occupancy
  N   N1        1.0  0.8386936899284991  0.5634354180592454  0.41675121098308154  1.0000
  C   C1        1.0  0.7611672657143258  0.5634353917010222  0.41675122052767133  1.0000
  C   C2        1.0  0.6647346238028659  0.5634353919139908  0.4167512755922749  1.0000
  C   C3        1.0  0.618498451876666  0.47431947536248464  0.3266881313499277  1.0000
  C   C4        1.0  0.5247871409599006  0.47431938528912276  0.3266881025376238  1.0000
  C   C5        1.0  0.4769186263348054  0.5634354441450383  0.41675118800964595  1.0000
  C   C6        1.0  0.5231547985298348  0.6525513700229834  0.5068142242540015  1.0000
  C   C7        1.0  0.6168661764381365  0.6525514600934346  0.5068142530722165  1.0000
  C   C8        1.0  0.38048598535881784  0.5634353460433408  0.41675113270054137  1.0000
  N   N2        1.0  0.30295956047800165  0.5634354273262225  0.41675114462084784  1.0000
  H   H1        1.0  0.6548295893862868  0.404982067314521  0.25661396853939  1.0000
  H   H2        1.0  0.4897259333534612  0.4049820445324688  0.25661406564853295  1.0000
  H   H3        1.0  0.486823661020214  0.7218887780709478  0.5768883870645392  1.0000
  H   H4        1.0  0.6519273167842103  0.7218887915265604  0.5768883979533879  1.0000
  C   C9        1.0  0.07342833475276422  0.1400308824896619  0.4150836846217465  1.0000
  C   C10       1.0  0.049224924507989196  0.22205018482279296  0.2880303017990449  1.0000
  C   C11       1.0  0.017714382940862358  0.15491341347058363  0.16770712663804144  1.0000
  C   C12       1.0  0.009886701389895555  0.0048413892757657164  0.17302026801880666  1.0000
  C   C13       1.0  0.03492920376462115  0.9215879754951117  0.2971775700706365  1.0000
  C   C14       1.0  0.06823354125420922  0.9868289578237587  0.4184311662503464  1.0000
  C   C15       1.0  0.9923237958410375  0.24050054977815294  0.03912241929547467  1.0000
  N   N3        1.0  0.9719168150209282  0.3092970019852588  0.935773251268607  1.0000
  H   H5        1.0  0.08972304785208296  0.21993076029531355  0.7687983552886113  1.0000
  H   H6        1.0  0.9851915317811355  0.9518706653949498  0.08054435104254565  1.0000
  H   H7        1.0  0.08301031362249334  0.6902221135959625  0.6554300566467839  1.0000
  C   C16       1.0  0.07211732712936023  0.5595671339638226  0.9935927801885018  1.0000
  C   C17       1.0  0.14692786354246798  0.6143758688280265  0.06291590839124694  1.0000
  C   C18       1.0  0.2166480297372717  0.679930884565219  0.9829425736152495  1.0000
  C   C19       1.0  0.21260262554999443  0.6917805887002583  0.8325498903959407  1.0000
  C   C20       1.0  0.13975024996729424  0.6359604791690172  0.7615736577088952  1.0000
  C   C21       1.0  0.0695445217343158  0.5672926244812455  0.8399220569122919  1.0000
  Cl  Cl1       1.0  0.3087068582136072  0.7493559243869767  0.07172147380242788  1.0000
  H   H8        1.0  0.9644140677463755  0.3981843871901274  0.28595697482209587  1.0000
  H   H9        1.0  0.2663757615487281  0.7430722498511906  0.7702633896509501  1.0000
  H   H10       1.0  0.13937564716440876  0.6434837724269016  0.6445551065645181  1.0000
  H   H11       1.0  0.9259660952090318  0.5144316450139432  0.5631170072631817  1.0000
  Zn  Zn1       1.0  0.9726707985177532  0.5634316256097576  0.4167595065556986  1.0000
  Zn  Zn2       1.0  0.16898250162492978  0.5634274911392969  0.41675463520641465  1.0000
  C   C22       1.0  0.07006409239219291  0.560088450826498  0.67992497072273  1.0000
  C   C23       1.0  0.07159133987789312  0.5667724864017418  0.15358931961371103  1.0000
  C   C24       1.0  0.06922830924494926  0.8267136589357218  0.412056046424647  1.0000
  C   C25       1.0  0.07242706643105778  0.3001455467113072  0.42145831389240773  1.0000
  O   O1        1.0  0.14591412058179815  0.569182809254795  0.20728374631394164  1.0000
  O   O2        1.0  0.1447373599367523  0.5576738985089293  0.6262264276640486  1.0000
  O   O3        1.0  0.1440614456347067  0.7729771396918639  0.40992038202758874  1.0000
  O   O4        1.0  0.14658996816113667  0.3538795774012098  0.423589683946499  1.0000
  O   O5        1.0  0.9950632649900099  0.7729795393507553  0.4099244578097032  1.0000
  O   O6        1.0  0.9957391688945981  0.5576780297519419  0.6262304334596389  1.0000
  O   O7        1.0  0.9969159351741996  0.5691868744386185  0.20728601939022773  1.0000
  O   O8        1.0  0.9975917824847086  0.35388363325859507  0.4235920650207772  1.0000
