data_image0
_chemical_formula_structural       NC14NH8C6SCH8C6OCH7Zn2C4O8
_chemical_formula_sum              "N2 C32 H23 S1 O9 Zn2"
_cell_length_a       14.909852193252176
_cell_length_b       9.2752707164912
_cell_length_c       9.273891588657152
_cell_angle_alpha    86.21631608498728
_cell_angle_beta     91.27453169304475
_cell_angle_gamma    92.1990108119496

_space_group_name_H-M_alt    "P 1"
_space_group_IT_number       1

loop_
  _space_group_symop_operation_xyz
  'x, y, z'

loop_
  _atom_site_type_symbol
  _atom_site_label
  _atom_site_symmetry_multiplicity
  _atom_site_fract_x
  _atom_site_fract_y
  _atom_site_fract_z
  _atom_site_occupancy
  N   N1        1.0  0.8407321341286674  0.6273480465082493  0.4474197345685504  1.0000
  C   C1        1.0  0.7693640865091658  0.5873567018760295  0.48154321026429464  1.0000
  C   C2        1.0  0.680587191637126  0.5376327973530977  0.5239981763660684  1.0000
  C   C3        1.0  0.6147069786695611  0.6376111256456409  0.5446312612792752  1.0000
  C   C4        1.0  0.5279687292382343  0.5897392738125353  0.586822740248333  1.0000
  C   C5        1.0  0.507661447052172  0.4405499767130537  0.6049888475702258  1.0000
  C   C6        1.0  0.5734788365544351  0.34101031228893564  0.5842662930269618  1.0000
  C   C7        1.0  0.6598468731386209  0.38926983817016847  0.544150678056728  1.0000
  C   C8        1.0  0.4575397181461314  0.6945678499889156  0.6066856411351145  1.0000
  C   C9        1.0  0.4696859384711877  0.8030127124966285  0.6955652631636344  1.0000
  C   C10       1.0  0.4059596086464046  0.9141845167586817  0.7214960312871108  1.0000
  C   C11       1.0  0.4423477021466675  0.998022822841568  0.8189539892072129  1.0000
  C   C12       1.0  0.5308706398919434  0.945986275569039  0.862280718645424  1.0000
  C   C13       1.0  0.5472389339381645  0.8313117042092996  0.7904814429488902  1.0000
  C   C14       1.0  0.373359116010428  0.6768365585410978  0.5285344941442012  1.0000
  N   N2        1.0  0.3059430099056444  0.6625470870453432  0.46590468838523336  1.0000
  H   H1        1.0  0.6306290537084953  0.7523695333062468  0.5269511747096252  1.0000
  H   H2        1.0  0.4410739187853302  0.4013425024736202  0.6362700774343788  1.0000
  H   H3        1.0  0.5574892652897413  0.22625781934956704  0.5992734051076477  1.0000
  H   H4        1.0  0.7102799139921653  0.3110570969570344  0.5283823829954064  1.0000
  H   H5        1.0  0.3403928897628256  0.9275755057368006  0.6710299030304365  1.0000
  H   H6        1.0  0.4108612258912181  0.08978015968527277  0.8599176385928476  1.0000
  H   H7        1.0  0.5758919184476802  0.992157267802852  0.9414316773140083  1.0000
  H   H8        1.0  0.6073616227998186  0.7697128738748666  0.8037506155662637  1.0000
  C   C15       1.0  0.07606339806573126  0.22171277028002945  0.45571638154590355  1.0000
  C   C16       1.0  0.06319633241180189  0.3030072632773031  0.3238221743502441  1.0000
  C   C17       1.0  0.04222625670542325  0.23481021813115713  0.19680339286670367  1.0000
  C   C18       1.0  0.034317424282942266  0.08432643727271041  0.19978636725429832  1.0000
  C   C19       1.0  0.048290822831132965  0.0017169554977638527  0.32896649659276433  1.0000
  C   C20       1.0  0.0706203621041197  0.06817200818681489  0.4576207957531391  1.0000
  S   S1        1.0  0.025173238004239994  0.34062929736712966  0.030117366544909263  1.0000
  C   C21       1.0  0.9053668484280185  0.3551399990744153  0.05655538107163815  1.0000
  H   H9        1.0  0.06129161389476769  0.3004694373802521  0.8093609549647847  1.0000
  H   H10       1.0  0.06713544418541643  0.4200904889001735  0.3200781469364651  1.0000
  H   H11       1.0  0.017968929959649937  0.031001470010846747  0.10167305184255702  1.0000
  H   H12       1.0  0.04371504807968973  0.8849780164434051  0.327496082968459  1.0000
  H   H13       1.0  0.06447964923757386  0.770949500582814  0.6955298120901152  1.0000
  H   H14       1.0  0.8719287891401891  0.24596000035807086  0.06385852114868062  1.0000
  H   H15       1.0  0.8938604838878201  0.4103255912586592  0.1568032774421937  1.0000
  H   H16       1.0  0.8761326311581513  0.41944565841358106  0.9632003775145191  1.0000
  C   C22       1.0  0.07483699728430171  0.6412365748024065  0.03344311435857828  1.0000
  C   C23       1.0  0.14795826994731565  0.7076740251757067  0.10507477539444765  1.0000
  C   C24       1.0  0.21591854608024919  0.7844883752809788  0.028144883864132716  1.0000
  C   C25       1.0  0.21099989282855913  0.7952449302222548  0.8765366986656739  1.0000
  C   C26       1.0  0.13977013650687997  0.7280774929625335  0.8036358119629221  1.0000
  C   C27       1.0  0.07184675620529957  0.6486481185192567  0.879894065432794  1.0000
  O   O1        1.0  0.28659974708356906  0.8489658262799937  0.10630805152256406  1.0000
  C   C28       1.0  0.3600324001857489  0.9304092602502211  0.04233953245281928  1.0000
  H   H17       1.0  0.8618896081659401  0.5365603877457608  0.13577719540071875  1.0000
  H   H18       1.0  0.26235616255276856  0.85419301041166  0.8137930692342764  1.0000
  H   H19       1.0  0.13899806314732  0.7354507176260169  0.6865425679469612  1.0000
  H   H20       1.0  0.9298794842951663  0.5725638568523312  0.5986467757966549  1.0000
  H   H21       1.0  0.3353092211703208  0.0261170522925589  0.977205942562656  1.0000
  H   H22       1.0  0.39792122011409803  0.8617119457155549  0.9732531523645416  1.0000
  H   H23       1.0  0.40576149926216276  0.9683357216127106  0.12908641482191374  1.0000
  Zn  Zn1       1.0  0.9749819460334933  0.637501930969721  0.4527624061691468  1.0000
  Zn  Zn2       1.0  0.17169323907806233  0.6523814673688948  0.4605737919480297  1.0000
  C   C29       1.0  0.07244690860251102  0.641505431497762  0.7198837324600129  1.0000
  C   C30       1.0  0.07423041239691885  0.6483799490688347  0.19345269650503183  1.0000
  C   C31       1.0  0.07166489051882263  0.9081225318460224  0.4515174939268962  1.0000
  C   C32       1.0  0.07501237422007216  0.3817611127252776  0.46181900531459047  1.0000
  O   O2        1.0  0.14867778794057984  0.6564177495265049  0.2501177400259895  1.0000
  O   O3        1.0  0.14729886134735914  0.644759763970051  0.6691469326788679  1.0000
  O   O4        1.0  0.1466663602308269  0.8600563813361852  0.45243925973754967  1.0000
  O   O5        1.0  0.1493102222483207  0.44112113644688505  0.46682530226312896  1.0000
  O   O6        1.0  0.9973648957353418  0.8487622568155782  0.4465108931808279  1.0000
  O   O7        1.0  0.9979973859845152  0.6334673703685878  0.6632184931724838  1.0000
  O   O8        1.0  0.999376319081679  0.6451252905331634  0.24418756763910343  1.0000
  O   O9        1.0  8.753070317220865e-06  0.42982866809087583  0.4608952379072017  1.0000
