data_image0
_chemical_formula_structural       NC9NC5H8C8H6C9H10Zn2C4O8
_chemical_formula_sum              "N2 C35 H24 Zn2 O8"
_cell_length_a       17.807436237873137
_cell_length_b       9.275140704573507
_cell_length_c       9.272679976505533
_cell_angle_alpha    86.15343735439215
_cell_angle_beta     89.80029134641114
_cell_angle_gamma    88.98377242316299

_space_group_name_H-M_alt    "P 1"
_space_group_IT_number       1

loop_
  _space_group_symop_operation_xyz
  'x, y, z'

loop_
  _atom_site_type_symbol
  _atom_site_label
  _atom_site_symmetry_multiplicity
  _atom_site_fract_x
  _atom_site_fract_y
  _atom_site_fract_z
  _atom_site_occupancy
  N   N1        1.0  0.7098967687432486  0.5278735552323548  0.4018689506848421  1.0000
  C   C1        1.0  0.6490538603062338  0.48871620175266495  0.3895414674769351  1.0000
  C   C2        1.0  0.5733719693980761  0.4400087661087697  0.3742074170096641  1.0000
  C   C3        1.0  0.554428449345545  0.3598221216635049  0.2574639480843792  1.0000
  C   C4        1.0  0.4809442439546517  0.31240647073880345  0.24248356580796002  1.0000
  C   C5        1.0  0.4253524470169368  0.34475811560998393  0.34420966153123245  1.0000
  C   C6        1.0  0.3472586997092356  0.29449576520670684  0.32838079722526853  1.0000
  C   C7        1.0  0.285676988802177  0.38547275466902753  0.3573842809704866  1.0000
  C   C8        1.0  0.21204931730903132  0.3378318462263155  0.34241856545491384  1.0000
  C   C9        1.0  0.14943511225836884  0.43179946339088554  0.3718329027710947  1.0000
  N   N2        1.0  0.0991062417502923  0.5073429360565405  0.39548120855169056  1.0000
  C   C10       1.0  0.1994181637539668  0.19892736426165628  0.2984205651873717  1.0000
  C   C11       1.0  0.2601423879470968  0.10793492539186535  0.26940773279858954  1.0000
  C   C12       1.0  0.3336474452639868  0.15513612102969754  0.28414760564716257  1.0000
  C   C13       1.0  0.4449912192765386  0.42549542649228433  0.46119775735746416  1.0000
  C   C14       1.0  0.5185265264092871  0.4726983800961728  0.47600486857674745  1.0000
  H   H1        1.0  0.5963989251153328  0.33423854571006295  0.17780016781509977  1.0000
  H   H2        1.0  0.46737504841861827  0.2520959010913393  0.1502985212454695  1.0000
  H   H3        1.0  0.2948750841550032  0.49391232679551106  0.3896895250349959  1.0000
  H   H4        1.0  0.14270640645159294  0.16105436076672008  0.2865723017056614  1.0000
  H   H5        1.0  0.2502460118567106  0.00039522764047195596  0.2357720495563349  1.0000
  H   H6        1.0  0.3798174078615063  0.08199185350567496  0.2628341061148536  1.0000
  H   H7        1.0  0.4037396239410354  0.45049191909620867  0.5422971401391199  1.0000
  H   H8        1.0  0.5326271764399771  0.5343547550550867  0.5670367619486203  1.0000
  C   C15       1.0  0.9022200444812598  0.09427971291781702  0.3977043089741521  1.0000
  C   C16       1.0  0.912465392659894  0.1761175850702934  0.2660246665099233  1.0000
  C   C17       1.0  0.9292789107363638  0.10889429381128779  0.1394044006446904  1.0000
  C   C18       1.0  0.9362514677586167  0.958618744613666  0.14203072667032757  1.0000
  C   C19       1.0  0.9250356816371118  0.8752321148502253  0.2713634875428439  1.0000
  C   C20       1.0  0.9067901060515063  0.9409254423863064  0.39965825789871445  1.0000
  C   C21       1.0  0.954074933151269  0.8895586928072244  0.011364099857567474  1.0000
  C   C22       1.0  0.968998274023682  0.8317228713297155  0.9019680899159752  1.0000
  H   H9        1.0  0.9157928721677715  0.1729339343933802  0.7517249123478722  1.0000
  H   H10       1.0  0.9092199917922333  0.29307793947538535  0.2616620725382093  1.0000
  H   H11       1.0  0.9375772919184265  0.17439145609691642  0.039601991436414075  1.0000
  H   H12       1.0  0.9288208738061989  0.7584237761741575  0.2711232700903583  1.0000
  H   H13       1.0  0.91304674954355  0.6439993799349037  0.6382304199709183  1.0000
  H   H14       1.0  0.9820977625473505  0.7809534751935326  0.8059413678297083  1.0000
  C   C23       1.0  0.90296407954982  0.514278829701553  0.9753357268757745  1.0000
  C   C24       1.0  0.9535190480747664  0.42241518283556556  0.05455854546641325  1.0000
  C   C25       1.0  0.007835349441147612  0.3420382357508087  0.9848803959431978  1.0000
  C   C26       1.0  0.013433798632057403  0.3508789289530079  0.8339481511530229  1.0000
  C   C27       1.0  0.9619668352087369  0.44083364395715857  0.7533513349460184  1.0000
  C   C28       1.0  0.9060460787803635  0.5209263450467292  0.8220268552937888  1.0000
  C   C29       1.0  0.07470284652427317  0.26078334728599084  0.7665862567273534  1.0000
  C   C30       1.0  0.056464637002526796  0.19575421452250175  0.6246276137094591  1.0000
  C   C31       1.0  0.10998371632869229  0.32204628507694966  0.6262401185094273  1.0000
  H   H15       1.0  0.7904137549780437  0.6177110209580996  0.25036736739315524  1.0000
  H   H16       1.0  0.9522909172217491  0.41520624356453273  0.17163587737072802  1.0000
  H   H17       1.0  0.04635331196781188  0.2733671184571327  0.049720990112719125  1.0000
  H   H18       1.0  0.9636803626533147  0.44697695899449075  0.6365592434492545  1.0000
  H   H19       1.0  0.7362806983145814  0.6655369284763208  0.7104353195494522  1.0000
  H   H20       1.0  0.11360335050139224  0.19386373367663445  0.8379786875995161  1.0000
  H   H21       1.0  0.0008147527807731428  0.22329699474994835  0.5759182895826709  1.0000
  H   H22       1.0  0.085074354498615  0.0904350248673882  0.6096153686486477  1.0000
  H   H23       1.0  0.08687948383535925  0.4262366432873095  0.578392861627504  1.0000
  H   H24       1.0  0.1698817135769417  0.2905293713816395  0.6121663170761469  1.0000
  Zn  Zn1       1.0  0.8222142236586361  0.5219450809343409  0.400033914903273  1.0000
  Zn  Zn2       1.0  0.9867887483491338  0.5132597525040221  0.397328068982556  1.0000
  C   C32       1.0  0.9054308475673128  0.5139269886643095  0.6619708336655898  1.0000
  C   C33       1.0  0.9035739319224158  0.5212795699474608  0.13539126636667254  1.0000
  C   C34       1.0  0.9059015050096756  0.7808464759888201  0.3935441597264448  1.0000
  C   C35       1.0  0.9031032092530906  0.25435835421777053  0.4038180140916476  1.0000
  O   O1        1.0  0.9662337444346829  0.5203267563458813  0.1880804986057789  1.0000
  O   O2        1.0  0.9676792839189803  0.5082867481790515  0.6072275094772471  1.0000
  O   O3        1.0  0.9680585092868488  0.7238276660523706  0.39047108841008793  1.0000
  O   O4        1.0  0.9658544625708781  0.30478585089998944  0.40483681252752857  1.0000
  O   O5        1.0  0.8431484532756642  0.7304189855037595  0.3925251722740934  1.0000
  O   O6        1.0  0.8427692369735307  0.5148797990010052  0.6092815204712156  1.0000
  O   O7        1.0  0.8413236909588371  0.5269197433219368  0.19013277622160651  1.0000
  O   O8        1.0  0.8409444094297405  0.3113788284140031  0.406889198204559  1.0000
