data_image0
_chemical_formula_structural       NC12NC2H8C9H8C6OCH7Zn2C4O8
_chemical_formula_sum              "N2 C34 H23 O9 Zn2"
_cell_length_a       19.240039667572717
_cell_length_b       9.275152443626249
_cell_length_c       9.273891588657152
_cell_angle_alpha    85.88202133130156
_cell_angle_beta     89.6801242657702
_cell_angle_gamma    90.57354334366605

_space_group_name_H-M_alt    "P 1"
_space_group_IT_number       1

loop_
  _space_group_symop_operation_xyz
  'x, y, z'

loop_
  _atom_site_type_symbol
  _atom_site_label
  _atom_site_symmetry_multiplicity
  _atom_site_fract_x
  _atom_site_fract_y
  _atom_site_fract_z
  _atom_site_occupancy
  N   N1        1.0  0.6663192359202814  0.5643934539421647  0.40468636596856  1.0000
  C   C1        1.0  0.606170867794771  0.5643935464072916  0.4046862747118463  1.0000
  C   C2        1.0  0.5313528316869246  0.5643936753124015  0.4046861218787643  1.0000
  C   C3        1.0  0.494229056197428  0.49382146620338113  0.5197027237239893  1.0000
  C   C4        1.0  0.4215574583301556  0.4936991670051778  0.5197991937378466  1.0000
  C   C5        1.0  0.38502059791570487  0.5643937758539235  0.4046858688348376  1.0000
  C   C6        1.0  0.4228594163210464  0.6350885943511242  0.28957275913232017  1.0000
  C   C7        1.0  0.4955292533928205  0.6349660347895278  0.28966936599781445  1.0000
  C   C8        1.0  0.307815507333993  0.564393687523433  0.404685763236736  1.0000
  C   C9        1.0  0.2698964111914104  0.4390043038005041  0.451585950902891  1.0000
  C   C10       1.0  0.197226565248271  0.43912213307649606  0.45148418761162334  1.0000
  C   C11       1.0  0.16148321953811018  0.5643935446496602  0.404685831328362  1.0000
  C   C12       1.0  0.0866651810416703  0.564393420794112  0.40468610773610125  1.0000
  N   N2        1.0  0.026516863357932602  0.5643933775335448  0.4046863392050672  1.0000
  C   C13       1.0  0.19868738524719756  0.689665039921735  0.35788741605647156  1.0000
  C   C14       1.0  0.2713589253511505  0.6897830676463215  0.3577854716259632  1.0000
  H   H1        1.0  0.5214386401049804  0.43918970480076247  0.6095028159758968  1.0000
  H   H2        1.0  0.39395987787048037  0.43996506900567156  0.6108343000562875  1.0000
  H   H3        1.0  0.3962704662872841  0.6888227218912379  0.198537596277103  1.0000
  H   H4        1.0  0.523749439599528  0.6895976875818548  0.199869580217791  1.0000
  H   H5        1.0  0.2964193039383198  0.34028371812958347  0.4865157644012931  1.0000
  H   H6        1.0  0.1689431346459844  0.34141067963831895  0.4875570243908922  1.0000
  H   H7        1.0  0.17154099222716737  0.7873764662503399  0.3218145955191385  1.0000
  H   H8        1.0  0.29902251197821506  0.7885037408174298  0.3228556081373356  1.0000
  C   C15       1.0  0.8443671844333096  0.14077441966526694  0.4061578652717459  1.0000
  C   C16       1.0  0.8196185312405065  0.22240852258511912  0.283706081070505  1.0000
  C   C17       1.0  0.8013365679568247  0.15584118487335302  0.15896169272659283  1.0000
  C   C18       1.0  0.8075175494998761  0.006456256559073774  0.1541991864972112  1.0000
  C   C19       1.0  0.830909818964463  0.9231246657691572  0.2756160946891424  1.0000
  C   C20       1.0  0.8484755074653845  0.9880014850179116  0.40322726786305885  1.0000
  C   C21       1.0  0.7890289953375712  0.9381407121445129  0.025018526915354226  1.0000
  C   C22       1.0  0.7735491778543684  0.8809089859826309  0.9168499786064861  1.0000
  C   C23       1.0  0.7547674855322558  0.8114564081407105  0.7856064158582075  1.0000
  H   H9        1.0  0.9434753860932171  0.225024189949161  0.6940170284046948  1.0000
  H   H10       1.0  0.81595852320983  0.33892191657751325  0.2832526939391151  1.0000
  H   H11       1.0  0.7830009466362929  0.22123833008936877  0.06561101426634884  1.0000
  H   H12       1.0  0.8338467725439075  0.8067783411534761  0.27159519425573  1.0000
  H   H13       1.0  0.9129658926547953  0.6944792512271861  0.6001132714185486  1.0000
  H   H14       1.0  0.7674377562720563  0.6948561228147565  0.79907194773653  1.0000
  H   H15       1.0  0.6982503299896002  0.8238608689132788  0.7658741257810306  1.0000
  H   H16       1.0  0.7843660477513084  0.8629627911099299  0.6923083603450949  1.0000
  C   C24       1.0  0.8475414279727888  0.5605674069773889  0.9814304678198993  1.0000
  C   C25       1.0  0.9047553962018616  0.6214979184432707  0.049793400424827716  1.0000
  C   C26       1.0  0.9580791899441512  0.693200349912301  0.9697356275723579  1.0000
  C   C27       1.0  0.9543802048529949  0.7043337407019038  0.8182565049059725  1.0000
  C   C28       1.0  0.8986221956935335  0.6425297584082359  0.7485543955247878  1.0000
  C   C29       1.0  0.8453012424587824  0.5682084105428928  0.8279546785952316  1.0000
  O   O1        1.0  0.013386442474548234  0.7523547377151589  0.044737611827335044  1.0000
  C   C30       1.0  0.07098874305803093  0.8282739709618084  0.9773986269859458  1.0000
  H   H17       1.0  0.6817928264676643  0.4719661305800627  0.09275420450737655  1.0000
  H   H18       1.0  0.994684821382596  0.7594192213133613  0.753143822010695  1.0000
  H   H19       1.0  0.8980974392947018  0.6499645240678171  0.6314475025717642  1.0000
  H   H20       1.0  0.7347384452812256  0.5028382852202967  0.5527381629089225  1.0000
  H   H21       1.0  0.05280534745288933  0.9258933995230217  0.9126653856364122  1.0000
  H   H22       1.0  0.09962152327671922  0.7566798095245051  0.907233599344026  1.0000
  H   H23       1.0  0.10673401757877565  0.8627549410668486  0.06212289669550186  1.0000
  Zn  Zn1       1.0  0.7702644590041359  0.5643896555929517  0.40469468259293945  1.0000
  Zn  Zn2       1.0  0.9225715708558966  0.5643855149776569  0.40468982646722873  1.0000
  C   C31       1.0  0.8456952795096648  0.5610172928782181  0.6679633731280934  1.0000
  C   C32       1.0  0.8471424219910976  0.5677596990789953  0.14142127105170638  1.0000
  C   C33       1.0  0.8477105644256877  0.8278056628387083  0.3980375805436558  1.0000
  C   C34       1.0  0.8451270764956161  0.300969596652068  0.41134714647727477  1.0000
  O   O2        1.0  0.9048082366135829  0.5701656332453677  0.1951138250449111  1.0000
  O   O3        1.0  0.9036270344568539  0.5586071240739319  0.6142667222992857  1.0000
  O   O4        1.0  0.9052536193788683  0.7740421203656713  0.396299729854079  1.0000
  O   O5        1.0  0.9031816000554992  0.35473064629899276  0.41308070938484914  1.0000
  O   O6        1.0  0.7896543778296187  0.7740445242745314  0.396303799669389  1.0000
  O   O7        1.0  0.7880278015121482  0.5586112604521436  0.6142707092675355  1.0000
  O   O8        1.0  0.7892090080571899  0.5701697037119011  0.1951160792672002  1.0000
  O   O9        1.0  0.7875823711602609  0.3547347074230762  0.4130830717064774  1.0000
