data_image0
_chemical_formula_structural       NC9NC5H8C7NC2NH8C9H10Zn2C4O8
_chemical_formula_sum              "N4 C36 H26 Zn2 O8"
_cell_length_a       17.807436237873137
_cell_length_b       9.273995741505848
_cell_length_c       9.272679976505533
_cell_angle_alpha    86.1595600704732
_cell_angle_beta     89.80029134641114
_cell_angle_gamma    88.97465214434487

_space_group_name_H-M_alt    "P 1"
_space_group_IT_number       1

loop_
  _space_group_symop_operation_xyz
  'x, y, z'

loop_
  _atom_site_type_symbol
  _atom_site_label
  _atom_site_symmetry_multiplicity
  _atom_site_fract_x
  _atom_site_fract_y
  _atom_site_fract_z
  _atom_site_occupancy
  N   N1        1.0  0.7097698775618777  0.5280555185470475  0.40203319363941636  1.0000
  C   C1        1.0  0.6489302211759409  0.4888935015912408  0.389701501104496  1.0000
  C   C2        1.0  0.5732523754612021  0.440180265096608  0.3743622146979597  1.0000
  C   C3        1.0  0.5543155149768068  0.3599840707592288  0.25761012588959886  1.0000
  C   C4        1.0  0.48083524749552686  0.3125627728299163  0.24262464653785362  1.0000
  C   C5        1.0  0.425240763726547  0.34491827064594077  0.3443542199898424  1.0000
  C   C6        1.0  0.3471511907492406  0.29464993420811747  0.3285199525947904  1.0000
  C   C7        1.0  0.28556192412683445  0.38563775864726435  0.35753321616079065  1.0000
  C   C8        1.0  0.2119382092511283  0.3379911763727186  0.3425623793552164  1.0000
  C   C9        1.0  0.1493162001109768  0.431969984685296  0.37198681797789956  1.0000
  N   N2        1.0  0.09898105565407869  0.5075224542608341  0.39564324451109734  1.0000
  C   C10       1.0  0.1993185918298974  0.19907015146844406  0.29854944716975274  1.0000
  C   C11       1.0  0.2600503730214612  0.1080668757818679  0.2695268332994125  1.0000
  C   C12       1.0  0.3335515102394295  0.15527369288358783  0.28427178016985355  1.0000
  C   C13       1.0  0.4448728306847033  0.42566519700241284  0.4613509948945476  1.0000
  C   C14       1.0  0.5184042175725291  0.4728737722795553  0.47616318032467686  1.0000
  H   H1        1.0  0.5962881154840539  0.33439744790948644  0.17794359544371652  1.0000
  H   H2        1.0  0.46727106080293174  0.25224502044725416  0.15043311872541176  1.0000
  H   H3        1.0  0.2947510134821635  0.4940902454707267  0.3898501172342568  1.0000
  H   H4        1.0  0.1426099799122571  0.16119263745807322  0.28669711242575  1.0000
  H   H5        1.0  0.2501629281932501  0.000514370504749452  0.235879589782662  1.0000
  H   H6        1.0  0.3797275475297695  0.08212071418492406  0.26295041779407313  1.0000
  H   H7        1.0  0.4036191593695052  0.450664666583479  0.5424530647426724  1.0000
  H   H8        1.0  0.5324997469895202  0.5345374902534201  0.5672017016175291  1.0000
  C   C15       1.0  0.9021291636324837  0.09441003702944387  0.39782194157049156  1.0000
  C   C16       1.0  0.9148421467214822  0.17592502845584468  0.2672330181748437  1.0000
  C   C17       1.0  0.9342948607973585  0.10877737680255017  0.14194098486932893  1.0000
  C   C18       1.0  0.9418520073136993  0.957947430178276  0.14365468928727343  1.0000
  C   C19       1.0  0.9275576655643294  0.8752286441137626  0.27307526932337134  1.0000
  C   C20       1.0  0.9066289300425584  0.9411565429624931  0.3998668378771453  1.0000
  C   C21       1.0  0.9633784086795094  0.888734927202153  0.009328216874729067  1.0000
  N   N3        1.0  0.9656387350949638  0.9618446443541429  0.8782874735163227  1.0000
  C   C22       1.0  0.9878364515451377  0.862055493273547  0.7872502021373027  1.0000
  C   C23       1.0  0.9988302653389821  0.731177763732868  0.863605355619478  1.0000
  N   N4        1.0  0.9834808361892403  0.7481095744803125  0.0032522539669443966  1.0000
  H   H9        1.0  0.8419781772382772  0.3638569428363938  0.6063007562083258  1.0000
  H   H10       1.0  0.9115574748750694  0.2929047238104834  0.26263704966058743  1.0000
  H   H11       1.0  0.9445389068363258  0.17564773808609124  0.043835644768779776  1.0000
  H   H12       1.0  0.9301079758425574  0.7585480976788833  0.27503133365950005  1.0000
  H   H13       1.0  0.9084816996225606  0.6449598686249978  0.6395859731434048  1.0000
  H   H14       1.0  0.9957283267921447  0.8837345965746207  0.6721763960794149  1.0000
  H   H15       1.0  0.017120160767784214  0.6307570060712477  0.820566570060187  1.0000
  H   H16       1.0  0.9878683014405741  0.6680164149195871  0.08745279164589514  1.0000
  C   C24       1.0  0.902838317421817  0.5144591739416098  0.9754985084280747  1.0000
  C   C25       1.0  0.9534009152997525  0.4225845865016289  0.05471145188426418  1.0000
  C   C26       1.0  0.007723892039063428  0.34219806686051313  0.9850246620208704  1.0000
  C   C27       1.0  0.013321607002980905  0.3510398129520915  0.8340933675852353  1.0000
  C   C28       1.0  0.961847172765065  0.4410052411844796  0.7535062213068184  1.0000
  C   C29       1.0  0.905919764570631  0.5211074809779059  0.8221903514389668  1.0000
  C   C30       1.0  0.07459813740888709  0.260933501280211  0.7667217880881307  1.0000
  C   C31       1.0  0.05636532861120689  0.19589662382050063  0.6247561545854139  1.0000
  C   C32       1.0  0.1098739192748943  0.3222037352294087  0.626382235497577  1.0000
  H   H17       1.0  0.790279402719728  0.6179036835371323  0.2505412676722844  1.0000
  H   H18       1.0  0.9521733831551934  0.41537478867624733  0.1717880088438979  1.0000
  H   H19       1.0  0.04624755775966616  0.273518771125576  0.049857874200460506  1.0000
  H   H20       1.0  0.9635601900021717  0.44714928786479574  0.6367147902025394  1.0000
  H   H21       1.0  0.7361423740744977  0.6657352869197997  0.7106143610055646  1.0000
  H   H22       1.0  0.11350419911609387  0.19400591782631518  0.8381070252530515  1.0000
  H   H23       1.0  0.000713156938434435  0.22344268427723657  0.5760497912452607  1.0000
  H   H24       1.0  0.08498379295440905  0.09056489109283739  0.6097325879497095  1.0000
  H   H25       1.0  0.08676103368484654  0.42640650207324055  0.5785461788437178  1.0000
  H   H26       1.0  0.16977453402928372  0.2906830680022273  0.6123050460672959  1.0000
  Zn  Zn1       1.0  0.8220878248420322  0.5221263381926777  0.4001975205602566  1.0000
  Zn  Zn2       1.0  0.9866630708563475  0.5134399753762702  0.39749074098636017  1.0000
  C   C33       1.0  0.9053051146600031  0.5141072910015783  0.6621335773957735  1.0000
  C   C34       1.0  0.9034475883770583  0.5214607479462379  0.1355548004827294  1.0000
  C   C35       1.0  0.9057536042148718  0.7810585673144534  0.393735596698344  1.0000
  C   C36       1.0  0.9029990337387729  0.25450774302233703  0.40395285478018894  1.0000
  O   O1        1.0  0.9661074800212949  0.5205078208685658  0.1882439302965266  1.0000
  O   O2        1.0  0.9675540194383775  0.5084663787873991  0.6073896468943241  1.0000
  O   O3        1.0  0.9679153439520761  0.7240329666775429  0.39065639598876745  1.0000
  O   O4        1.0  0.965746099010628  0.3049412454073299  0.40497707405800965  1.0000
  O   O5        1.0  0.8430047405262779  0.7306250711273574  0.3927111884047194  1.0000
  O   O6        1.0  0.8426434249345226  0.515060214813978  0.6094443666263571  1.0000
  O   O7        1.0  0.8411968789923459  0.5271015930416421  0.19029691664355552  1.0000
  O   O8        1.0  0.8408354983171735  0.31153500811723744  0.407030168465224  1.0000
