data_image0
_chemical_formula_structural       NC11NC3H8C10IC2H9C10IC2H9Zn2C4O8
_chemical_formula_sum              "N2 C42 H26 I2 Zn2 O8"
_cell_length_a       17.807433833752565
_cell_length_b       10.299770258652044
_cell_length_c       10.299773630820606
_cell_angle_alpha    85.54431016465574
_cell_angle_beta     88.52986386144698
_cell_angle_gamma    90.70301214587626

_space_group_name_H-M_alt    "P 1"
_space_group_IT_number       1

loop_
  _space_group_symop_operation_xyz
  'x, y, z'

loop_
  _atom_site_type_symbol
  _atom_site_label
  _atom_site_symmetry_multiplicity
  _atom_site_fract_x
  _atom_site_fract_y
  _atom_site_fract_z
  _atom_site_occupancy
  N   N1        1.0  0.7076021262469033  0.43892097514199874  0.5347034350856872  1.0000
  C   C1        1.0  0.6567797466683065  0.40417382570201693  0.6012644179172469  1.0000
  C   C2        1.0  0.5935515809268885  0.36095123688908354  0.6840577864028405  1.0000
  C   C3        1.0  0.6052734344164885  0.2973633648472078  0.8067736990508765  1.0000
  C   C4        1.0  0.5439528522404388  0.2558212480867823  0.8872831990402253  1.0000
  C   C5        1.0  0.4707560448998584  0.277553538027789  0.8457175694645667  1.0000
  C   C6        1.0  0.4580574022809596  0.34129610337047317  0.7225414668178186  1.0000
  C   C7        1.0  0.3802924748217293  0.3643593667564869  0.6781952404125233  1.0000
  C   C8        1.0  0.3614988601579318  0.34752753744266296  0.5486151855684311  1.0000
  C   C9        1.0  0.2882721007499082  0.3692211133970634  0.5070054836512821  1.0000
  C   C10       1.0  0.2328958977418996  0.4080652985675564  0.5941555763219948  1.0000
  C   C11       1.0  0.1575324668499027  0.43041775740548993  0.551184606742374  1.0000
  N   N2        1.0  0.0969456417130267  0.4483874737269389  0.5166390746180647  1.0000
  C   C12       1.0  0.2509979597830451  0.4251078682259853  0.7232045061967183  1.0000
  C   C13       1.0  0.3241719645775568  0.4033792831889016  0.7650696349133075  1.0000
  C   C14       1.0  0.5202352963676227  0.38283365013538617  0.6420483824298757  1.0000
  H   H1        1.0  0.6617377635031972  0.27993866380342336  0.8401385504885223  1.0000
  H   H2        1.0  0.5531467978459007  0.20633994315429074  0.9820173842339174  1.0000
  H   H3        1.0  0.4241137341820144  0.24297808502970145  0.9091552920076041  1.0000
  H   H4        1.0  0.4031676708045077  0.3159073400696626  0.4798982014813109  1.0000
  H   H5        1.0  0.2748227118010811  0.3553715943145674  0.4069711758607089  1.0000
  H   H6        1.0  0.20861211089667672  0.45550521006768885  0.7914066906594505  1.0000
  H   H7        1.0  0.337093198641626  0.4187742540394435  0.8649212327220371  1.0000
  H   H8        1.0  0.5117400939527322  0.4336772222837333  0.5475485500029378  1.0000
  C   C15       1.0  0.9022066751104556  0.06228733480456228  0.5256712521451878  1.0000
  C   C16       1.0  0.9077750907265089  0.07202597676282751  0.3890165992198513  1.0000
  C   C17       1.0  0.9106686449723872  0.9598230874174458  0.31977839732034163  1.0000
  C   C18       1.0  0.9079182188210893  0.8367416565717773  0.3890275747348353  1.0000
  C   C19       1.0  0.9023482608541944  0.8250112642585359  0.5256821312114084  1.0000
  C   C20       1.0  0.8995240924031602  0.9383420855562122  0.5932387632639  1.0000
  C   C21       1.0  0.9165600086406956  0.9711791031699198  0.1752109757189313  1.0000
  C   C22       1.0  0.9646297751263712  0.8895315869999864  0.1090337417142806  1.0000
  C   C23       1.0  0.9700991427962656  0.9004300587924687  0.9729591759213289  1.0000
  C   C24       1.0  0.9277171432839789  0.9926851484062569  0.901407340748396  1.0000
  I   I1        1.0  0.936080767183636  0.008806805308943174  0.6961504993136414  1.0000
  C   C25       1.0  0.8797851963537218  0.07424219907481168  0.9660593980731729  1.0000
  C   C26       1.0  0.8741652856473654  0.06376541998422258  0.10212241887732575  1.0000
  H   H9        1.0  0.9000507287546315  0.38602935899256474  0.5777404511574593  1.0000
  H   H10       1.0  0.910911431306993  0.16712800291548002  0.3361798166226282  1.0000
  H   H11       1.0  0.9090946283837645  0.7499523582553711  0.3360411218440269  1.0000
  H   H12       1.0  0.8952276322773769  0.9300609213075048  0.6986615180305829  1.0000
  H   H13       1.0  0.9002592008832039  0.4930883363288463  0.5777562929945685  1.0000
  H   H14       1.0  0.99868816112672  0.8184760777948181  0.1625324157774668  1.0000
  H   H15       1.0  0.007435538715227398  0.837345165035009  0.9232297063476014  1.0000
  H   H16       1.0  0.8467207129824309  0.14556155738723492  0.9109514400815953  1.0000
  H   H17       1.0  0.8359717669377865  0.1268504443106755  0.15010127107419047  1.0000
  C   C27       1.0  0.9022576784491552  0.4437669670743645  0.1443074816123442  1.0000
  C   C28       1.0  0.9780085362239702  0.4838002998679547  0.1368413573977021  1.0000
  C   C29       1.0  0.016412040073235042  0.5039658478042819  0.015928050288201327  1.0000
  C   C30       1.0  0.9780484922811883  0.4835624834900969  0.901571655753691  1.0000
  C   C31       1.0  0.9022972579228455  0.44353169413263466  0.9070458432796809  1.0000
  C   C32       1.0  0.8648261189112486  0.4238574325683351  0.028875475304217746  1.0000
  C   C33       1.0  0.09654927725075613  0.5463163758329928  0.009083161951993764  1.0000
  C   C34       1.0  0.14780082323338467  0.4915489776764965  0.9232562419299056  1.0000
  C   C35       1.0  0.22320585075875998  0.5315356081382074  0.9170160654899377  1.0000
  C   C36       1.0  0.24832505025995033  0.6265277945039558  0.9961175160077271  1.0000
  I   I2        1.0  0.3621035739342495  0.6866586650516748  0.9863973918768812  1.0000
  C   C37       1.0  0.1979432296738437  0.6816183784068834  0.08166892859622288  1.0000
  C   C38       1.0  0.12249606437680671  0.6418818841835785  0.08831542045323704  1.0000
  H   H18       1.0  0.8733834812755692  0.4285691236324849  0.4746017526625763  1.0000
  H   H19       1.0  0.007612868981371699  0.49767194635709466  0.22538122938685443  1.0000
  H   H20       1.0  0.007104646519483729  0.5006910889526904  0.808021531856459  1.0000
  H   H21       1.0  0.8063876215398151  0.392974576123399  0.03386685058913219  1.0000
  H   H22       1.0  0.8734419088418186  0.42822274860376447  0.5816821085953263  1.0000
  H   H23       1.0  0.12978032622630842  0.4166512796621179  0.8622524440344432  1.0000
  H   H24       1.0  0.26210904826708864  0.48839609083584806  0.8509015909926214  1.0000
  H   H25       1.0  0.21715388889235654  0.7554703578567483  0.1428188369824952  1.0000
  H   H26       1.0  0.084265203702097  0.6870516972356367  0.1541246720158551  1.0000
  Zn  Zn1       1.0  0.8199582540698013  0.44164932521588  0.5294979353413507  1.0000
  Zn  Zn2       1.0  0.9845894977075403  0.44564850084950175  0.5218551602326839  1.0000
  C   C39       1.0  0.9022871461200626  0.4384024436616219  0.7628719922282622  1.0000
  C   C40       1.0  0.9022624037361543  0.4488970646465334  0.2884811473767708  1.0000
  C   C41       1.0  0.9023173700351661  0.680841729789349  0.5205050588879607  1.0000
  C   C42       1.0  0.902232123357849  0.2064562168381865  0.5308481525414941  1.0000
  O   O1        1.0  0.9647406875114181  0.4521307728543402  0.33396675324630104  1.0000
  O   O2        1.0  0.9647601667568865  0.4382030376229376  0.7115853230327778  1.0000
  O   O3        1.0  0.9647837308048686  0.633975806358854  0.515872348692693  1.0000
  O   O4        1.0  0.9647170672826149  0.2563580120739921  0.5296796328197391  1.0000
  O   O5        1.0  0.8398306283141629  0.6309398126280837  0.5216734653555684  1.0000
  O   O6        1.0  0.8398070645488187  0.4351686042094798  0.717386370472505  1.0000
  O   O7        1.0  0.8397875852638741  0.44909629466806256  0.33976623928121996  1.0000
  O   O8        1.0  0.8397639650353278  0.2533235245688401  0.5354792162225779  1.0000
