data_image0
_chemical_formula_structural       NC9NC5H8C6NH7C9H7Zn2C4O8
_chemical_formula_sum              "N3 C33 H22 Zn2 O8"
_cell_length_a       17.807436237873137
_cell_length_b       9.274771166103582
_cell_length_c       9.275155815604961
_cell_angle_alpha    85.94411296578332
_cell_angle_beta     89.76311116066847
_cell_angle_gamma    88.98784114054227

_space_group_name_H-M_alt    "P 1"
_space_group_IT_number       1

loop_
  _space_group_symop_operation_xyz
  'x, y, z'

loop_
  _atom_site_type_symbol
  _atom_site_label
  _atom_site_symmetry_multiplicity
  _atom_site_fract_x
  _atom_site_fract_y
  _atom_site_fract_z
  _atom_site_occupancy
  N   N1        1.0  0.7105116183942017  0.5274417853018973  0.3958856311235636  1.0000
  C   C1        1.0  0.649671239601682  0.48826433745520514  0.3837277949536361  1.0000
  C   C2        1.0  0.5739924952991874  0.43953190662054853  0.36860476672552345  1.0000
  C   C3        1.0  0.5550855577348243  0.3592506062870779  0.2522366959223059  1.0000
  C   C4        1.0  0.48160443369067846  0.3118105920772096  0.23746175551859228  1.0000
  C   C5        1.0  0.42597913008895255  0.3442323699245391  0.3390196827233767  1.0000
  C   C6        1.0  0.3478886316554642  0.2939442232978393  0.323408578858158  1.0000
  C   C7        1.0  0.28630091914806344  0.3849681111931227  0.35201779908767783  1.0000
  C   C8        1.0  0.2126763141822049  0.33730277391629726  0.3372584751766996  1.0000
  C   C9        1.0  0.1500560964493007  0.4313185139000341  0.3662657546026038  1.0000
  N   N2        1.0  0.0997223917445997  0.5069006746957758  0.38958681358968605  1.0000
  C   C10       1.0  0.2000542261891168  0.1983268535359177  0.29386235284715156  1.0000
  C   C11       1.0  0.2607844545198488  0.10728750568234943  0.26524385227989766  1.0000
  C   C12       1.0  0.3342865037155812  0.1545128533901703  0.2797792652986668  1.0000
  C   C13       1.0  0.4455812598277213  0.4250646609553641  0.4556299728922226  1.0000
  C   C14       1.0  0.5191135358396588  0.47229180652712843  0.47023259626329916  1.0000
  H   H1        1.0  0.5970822624677953  0.33361202604715456  0.17270566386199304  1.0000
  H   H2        1.0  0.468064255735702  0.25142626836066384  0.14556039792912712  1.0000
  H   H3        1.0  0.2954926383729047  0.49346225897265894  0.38385379577509643  1.0000
  H   H4        1.0  0.1433448898603919  0.16043445855255434  0.28217814911920813  1.0000
  H   H5        1.0  0.250894950253796  0.9996927503914562  0.2320740114788573  1.0000
  H   H6        1.0  0.3804606034393506  0.08133205258376086  0.25878213489631086  1.0000
  H   H7        1.0  0.40430291732950674  0.45011680415967703  0.5365986552041925  1.0000
  H   H8        1.0  0.5331856225134786  0.5340217040853921  0.5609754544658936  1.0000
  C   C15       1.0  0.9028174867967357  0.09370282444318301  0.39355902158396217  1.0000
  C   C16       1.0  0.8851106639632925  0.1768357513520915  0.2649629016734907  1.0000
  C   C17       1.0  0.8744130835553621  0.1112335753122453  0.13543564335458022  1.0000
  C   C18       1.0  0.8814585999711074  0.9611109917545815  0.13356448592388626  1.0000
  C   C19       1.0  0.897770830080236  0.8767169854823876  0.26041270398429467  1.0000
  C   C20       1.0  0.907423688454841  0.9406283379229446  0.3919258687989506  1.0000
  N   N3        1.0  0.8571630079265078  0.1974296917112326  0.005415636396917996  1.0000
  H   H9        1.0  0.9883780901849805  0.17156487875468684  0.7075899185861573  1.0000
  H   H10       1.0  0.8813221292931395  0.2936236345697689  0.26447059907138115  1.0000
  H   H11       1.0  0.8735833430222195  0.9091796932673052  0.033900576249374474  1.0000
  H   H12       1.0  0.901066941991114  0.760343454661182  0.25623176960965366  1.0000
  H   H13       1.0  0.9620153568213613  0.6425296123430414  0.6056366483602134  1.0000
  H   H14       1.0  0.851988455063163  0.309776282978953  0.005452567866946585  1.0000
  H   H15       1.0  0.8493662695783004  0.14953187598618456  0.9081206195181006  1.0000
  C   C21       1.0  0.9037247236387779  0.5135931597129147  0.9695404932230999  1.0000
  C   C22       1.0  0.8453555951279187  0.5869595017567437  0.03817066348052434  1.0000
  C   C23       1.0  0.7920689160378257  0.6696442402688756  0.9576013042297244  1.0000
  C   C24       1.0  0.7961642040400159  0.6806872774769741  0.8069325159887568  1.0000
  C   C25       1.0  0.8530178162199443  0.6066259117011719  0.7366199330895794  1.0000
  C   C26       1.0  0.9065164245562071  0.5207379219923025  0.8159443232450586  1.0000
  C   C27       1.0  0.7413777550516275  0.766821162167953  0.7240686095786777  1.0000
  C   C28       1.0  0.6955039934026429  0.8389464008115055  0.6546547154823549  1.0000
  C   C29       1.0  0.6398444366480543  0.9264581567083292  0.5704212069359116  1.0000
  H   H16       1.0  0.07740984643070624  0.3880467831370551  0.07990163767343783  1.0000
  H   H17       1.0  0.8419597757002536  0.5831401942151355  0.15502451421760055  1.0000
  H   H18       1.0  0.7480449921925967  0.7261840060171678  0.0130270441671001  1.0000
  H   H19       1.0  0.8544423166164312  0.6133336308175219  0.6194381045262745  1.0000
  H   H20       1.0  0.6551281997827485  0.9297959934592988  0.4541672501104687  1.0000
  H   H21       1.0  0.5836309823026957  0.878059066779391  0.5864517190801237  1.0000
  H   H22       1.0  0.6385493756263074  0.03790787084917203  0.6067419700883585  1.0000
  Zn  Zn1       1.0  0.8228294455379722  0.5215102870298519  0.39407627052951616  1.0000
  Zn  Zn2       1.0  0.9874045215504187  0.5128205181958001  0.39140804459942247  1.0000
  C   C30       1.0  0.9059558250834362  0.5136427306836753  0.6559670158889652  1.0000
  C   C31       1.0  0.9042799495219992  0.5206898003510081  0.12951740804282053  1.0000
  C   C32       1.0  0.9065302016155707  0.7804930839728941  0.3864917620328914  1.0000
  C   C33       1.0  0.9037055076624922  0.2538377181309899  0.398992742983892  1.0000
  O   O1        1.0  0.9669216378409831  0.5197674846089824  0.1821945563602998  1.0000
  O   O2        1.0  0.9682228041648889  0.507968621572086  0.6012643330730522  1.0000
  O   O3        1.0  0.9686857834926884  0.7234537137407646  0.38366116976093967  1.0000
  O   O4        1.0  0.9664586020545591  0.30428240480916435  0.39979761250713963  1.0000
  O   O5        1.0  0.8437753088724187  0.7300484033833855  0.3856867035247502  1.0000
  O   O6        1.0  0.843312338710579  0.5145650431124029  0.6032897866548173  1.0000
  O   O7        1.0  0.8420111664483939  0.5263638412687526  0.1842182773647063  1.0000
  O   O8        1.0  0.8415481309591812  0.31087875206697113  0.4018214415797705  1.0000
