data_image0
_chemical_formula_structural       NC5NC3H4C6H6C6H6Zn2C4O8
_chemical_formula_sum              "N2 C24 H16 Zn2 O8"
_cell_length_a       13.859018345313864
_cell_length_b       10.30227716192359
_cell_length_c       10.681121600428288
_cell_angle_alpha    85.56070482122752
_cell_angle_beta     89.99986506473405
_cell_angle_gamma    89.99830482955022

_space_group_name_H-M_alt    "P 1"
_space_group_IT_number       1

loop_
  _space_group_symop_operation_xyz
  'x, y, z'

loop_
  _atom_site_type_symbol
  _atom_site_label
  _atom_site_symmetry_multiplicity
  _atom_site_fract_x
  _atom_site_fract_y
  _atom_site_fract_z
  _atom_site_occupancy
  N   N1        1.0  0.908561358054703  0.42092902088896234  0.6186792755361705  1.0000
  C   C1        1.0  0.8362075356717321  0.3853288026522566  0.6632063904336678  1.0000
  C   C2        1.0  0.7462036290655709  0.34104689952634604  0.7185921985281034  1.0000
  C   C3        1.0  0.6585876140105953  0.3842165687792509  0.6645978184509387  1.0000
  C   C4        1.0  0.5709733246012085  0.34104663803444835  0.7185920894517035  1.0000
  C   C5        1.0  0.48096765604913977  0.38532870119846097  0.663206305891413  1.0000
  N   N2        1.0  0.40861245549798386  0.42092899036971193  0.618679215568456  1.0000
  C   C6        1.0  0.5711575300763628  0.2546942703032389  0.8265968954199853  1.0000
  C   C7        1.0  0.6585910005828272  0.21169078065801236  0.8803834921654252  1.0000
  C   C8        1.0  0.7460228736233482  0.2546945360417763  0.8265970723520224  1.0000
  H   H1        1.0  0.6585862405727639  0.4510556566127032  0.5809991935547465  1.0000
  H   H2        1.0  0.5038627305966934  0.22071532524525694  0.8690955292638967  1.0000
  H   H3        1.0  0.6585923084453049  0.14498738826334082  0.9638125631563527  1.0000
  H   H4        1.0  0.8133189922524068  0.2207158023738309  0.8690958987577346  1.0000
  C   C9        1.0  0.15859152416525157  0.039655871353708065  0.6186846719118033  1.0000
  C   C10       1.0  0.11321806724934765  0.9186944824467677  0.6464892881220048  1.0000
  C   C11       1.0  0.15859147771232385  0.8021921055166689  0.6186847031125478  1.0000
  C   C12       1.0  0.2503454352611292  0.8079309939183551  0.5624583098524965  1.0000
  C   C13       1.0  0.2957276289247195  0.9276623114259411  0.5346482653220046  1.0000
  C   C14       1.0  0.250345421043624  0.04293393731915484  0.5624582248385859  1.0000
  H   H5        1.0  0.9855648020369131  0.24066975528465392  0.7247146791178165  1.0000
  H   H6        1.0  0.04252472567002429  0.9152209278044762  0.6898097155770513  1.0000
  H   H7        1.0  0.9855651233765544  0.5841742456580336  0.7247156584517864  1.0000
  H   H8        1.0  0.28709240783903556  0.7199442350132557  0.5399399782495293  1.0000
  H   H9        1.0  0.3663918190609575  0.9311345965767656  0.4913455893875507  1.0000
  H   H10       1.0  0.287092421524376  0.1345318848983201  0.5399398439668825  1.0000
  C   C15       1.0  0.15859153559560107  0.420923972684604  0.25093944836356186  1.0000
  C   C16       1.0  0.08952891550796727  0.3487141520432824  0.18951695921899178  1.0000
  C   C17       1.0  0.08952885526528465  0.3487142352950594  0.05863481926610237  1.0000
  C   C18       1.0  0.15859145974277997  0.42092403632991265  0.9864298840399099  1.0000
  C   C19       1.0  0.2275970775399323  0.49307401665495965  0.04785179283688069  1.0000
  C   C20       1.0  0.22759706519497516  0.49307399652212913  0.1787440914999261  1.0000
  H   H11       1.0  0.22843215181287865  0.4939479423812542  0.5441971922972255  1.0000
  H   H12       1.0  0.035394373533151224  0.2921126818357192  0.24255379312411837  1.0000
  H   H13       1.0  0.035394353381560606  0.2921127429515764  0.014049763898586807  1.0000
  H   H14       1.0  0.28173868880178454  0.5496829454790672  0.994859294299582  1.0000
  H   H15       1.0  0.28173864018701256  0.5496828999643987  0.22328366178398817  1.0000
  H   H16       1.0  0.22843245295747194  0.4939474900283709  0.682268166583774  1.0000
  Zn  Zn1       1.0  0.05286530150041256  0.420925527035763  0.6186864979950466  1.0000
  Zn  Zn2       1.0  0.26430848852206856  0.4209218285513858  0.6186822786981212  1.0000
  C   C21       1.0  0.158589347218832  0.41575162185276543  0.8474064588735641  1.0000
  C   C22       1.0  0.1585867517566273  0.42609737190193764  0.38996244068649966  1.0000
  C   C23       1.0  0.15858654196798572  0.6580565278944721  0.6136943804708059  1.0000
  C   C24       1.0  0.1585894848567293  0.1837909059508891  0.6236745858558901  1.0000
  O   O1        1.0  0.23882673378600106  0.4278265440652219  0.4366182256995377  1.0000
  O   O2        1.0  0.23882985167662849  0.4140186631490186  0.8007471110206876  1.0000
  O   O3        1.0  0.2388265047060365  0.6096829391604545  0.6120229541803315  1.0000
  O   O4        1.0  0.23883000860536135  0.23216227734293196  0.6253422886451923  1.0000
  O   O5        1.0  0.07834370926193698  0.609685078246892  0.6120264880428283  1.0000
  O   O6        1.0  0.07834705622809122  0.41402236214747296  0.8007505781114046  1.0000
  O   O7        1.0  0.07834393840172549  0.4278301978190082  0.43662018716766876  1.0000
  O   O8        1.0  0.078347213217135  0.2321659218102474  0.6253443440028779  1.0000
