data_image0
_chemical_formula_structural       NC8NH4C7NH5C10H3Zn2C4O8
_chemical_formula_sum              "N3 C29 H12 Zn2 O8"
_cell_length_a       11.048855714531884
_cell_length_b       9.275154477615127
_cell_length_c       9.27515367178086
_cell_angle_alpha    85.92749838792564
_cell_angle_beta     89.40940558656271
_cell_angle_gamma    89.43371274831733

_space_group_name_H-M_alt    "P 1"
_space_group_IT_number       1

loop_
  _space_group_symop_operation_xyz
  'x, y, z'

loop_
  _atom_site_type_symbol
  _atom_site_label
  _atom_site_symmetry_multiplicity
  _atom_site_fract_x
  _atom_site_fract_y
  _atom_site_fract_z
  _atom_site_occupancy
  N   N1        1.0  0.14033124256522145  0.5738337065005248  0.41574378928743566  1.0000
  C   C1        1.0  0.08704006331150049  0.5156797317284161  0.3304951453340286  1.0000
  C   C2        1.0  0.020549124665900198  0.443120149741519  0.22412890020922815  1.0000
  C   C3        1.0  0.8928323699838965  0.44311995946547594  0.22412900121326773  1.0000
  C   C4        1.0  0.8315669377338761  0.37139157512126464  0.11898151432494863  1.0000
  C   C5        1.0  0.8964856310917773  0.30023056255235314  0.014665663644854549  1.0000
  C   C6        1.0  0.022891844231973442  0.30023045250789737  0.014665685880289155  1.0000
  C   C7        1.0  0.08482447597105058  0.37139167346655966  0.1189814869891601  1.0000
  C   C8        1.0  0.8232966417230809  0.5156798066130401  0.3304951324939971  1.0000
  N   N2        1.0  0.7675651280990368  0.5738337492371126  0.41574381825858375  1.0000
  H   H1        1.0  0.733523548060002  0.3704933675948965  0.117664172926776  1.0000
  H   H2        1.0  0.8487458238022989  0.24503642107029086  0.9337564772495126  1.0000
  H   H3        1.0  0.07294786412319243  0.24503653046965623  0.9337564770746258  1.0000
  H   H4        1.0  0.1829055578435741  0.37049331926247175  0.11766444795193554  1.0000
  C   C9        1.0  0.45747078155946774  0.15044014473666167  0.4140752299341781  1.0000
  C   C10       1.0  0.42535215330994713  0.23329388578614196  0.28694099202624623  1.0000
  C   C11       1.0  0.383330659667769  0.16694735087545176  0.16654124376430768  1.0000
  C   C12       1.0  0.3727309960570371  0.016840431139286016  0.1718577652971438  1.0000
  C   C13       1.0  0.40599649455774023  0.9327715991397875  0.2960940795737239  1.0000
  C   C14       1.0  0.450437195069055  0.9972162345245917  0.41742484115588874  1.0000
  C   C15       1.0  0.34961512751137436  0.25337898297719863  0.037874706714495776  1.0000
  N   N3        1.0  0.3225172154550857  0.3228541934872229  0.9344597685635594  1.0000
  H   H5        1.0  0.477868551703198  0.22801695313596523  0.7680149937901717  1.0000
  H   H6        1.0  0.430332020656419  0.35024233762631685  0.2826626262983023  1.0000
  H   H7        1.0  0.3397899425052884  0.9644770535494444  0.07932299702639223  1.0000
  H   H8        1.0  0.39964222098294533  0.816303678238204  0.2959671822172285  1.0000
  H   H9        1.0  0.46931767806947566  0.6990528680803894  0.6545745508545406  1.0000
  C   C16       1.0  0.45762613532808116  0.5727445969926106  0.9923161037634928  1.0000
  C   C17       1.0  0.4883896839108458  0.7001652344987157  0.0565638439962477  1.0000
  C   C18       1.0  0.5078338139865688  0.828942969904936  0.9720808542089973  1.0000
  C   C19       1.0  0.49662702650821355  0.8319040256361788  0.8221520469821231  1.0000
  C   C20       1.0  0.46818886267923643  0.7060915434903474  0.7562922653350941  1.0000
  C   C21       1.0  0.4502818687354031  0.5749117370262464  0.8391839529001124  1.0000
  C   C22       1.0  0.5379375470222936  0.9587353807751406  0.03970333767326496  1.0000
  C   C23       1.0  0.563143348158182  0.06739973003859445  0.09634486725455638  1.0000
  C   C24       1.0  0.5926580838812279  0.19464089724310307  0.16267766139218653  1.0000
  C   C25       1.0  0.6178590123581944  0.3032844704488218  0.21931645768117972  1.0000
  H   H10       1.0  0.49449411477955524  0.7002382328218768  0.17317952530640857  1.0000
  H   H11       1.0  0.5110600810952265  0.9313074074352861  0.755838581027207  1.0000
  H   H12       1.0  0.6399874865436537  0.3986824354497478  0.2690502737463656  1.0000
  Zn  Zn1       1.0  0.32133736724054607  0.5738298721775665  0.41575210621256287  1.0000
  Zn  Zn2       1.0  0.5865590264388086  0.5738257881756925  0.4157472553152437  1.0000
  C   C26       1.0  0.45171507308320225  0.5687583302928707  0.6790850510554467  1.0000
  C   C27       1.0  0.45618420047032615  0.5788991495639915  0.15241445914149065  1.0000
  C   C28       1.0  0.4518102890275635  0.8371428052279182  0.41104566455365443  1.0000
  C   C29       1.0  0.45608890774619093  0.3105129425881208  0.4204539156684233  1.0000
  O   O1        1.0  0.5563505636586333  0.5809568336985371  0.20614306395117232  1.0000
  O   O2        1.0  0.5528458250492709  0.5666964577509108  0.6253523451431728  1.0000
  O   O3        1.0  0.5529213433125338  0.7834203193036211  0.408908650074834  1.0000
  O   O4        1.0  0.5562749557451206  0.36423298218450184  0.42258665094686987  1.0000
  O   O5        1.0  0.35162134742715107  0.7834226781717013  0.40891271057501344  1.0000
  O   O6        1.0  0.351545815436579  0.5667005486627583  0.6253563356122892  1.0000
  O   O7        1.0  0.35505056957828796  0.5809608699310747  0.20614532059834545  1.0000
  O   O8        1.0  0.35497496080794233  0.36423700838130824  0.4225890156607617  1.0000
