data_image0
_chemical_formula_structural       NC9NC5H8C6FH5C6NH7Zn2C4O8
_chemical_formula_sum              "N3 C30 H20 F1 Zn2 O8"
_cell_length_a       17.807436237873137
_cell_length_b       9.275642734913903
_cell_length_c       9.274774538082514
_cell_angle_alpha    84.97740811334555
_cell_angle_beta     89.72824813723155
_cell_angle_gamma    88.99238798493903

_space_group_name_H-M_alt    "P 1"
_space_group_IT_number       1

loop_
  _space_group_symop_operation_xyz
  'x, y, z'

loop_
  _atom_site_type_symbol
  _atom_site_label
  _atom_site_symmetry_multiplicity
  _atom_site_fract_x
  _atom_site_fract_y
  _atom_site_fract_z
  _atom_site_occupancy
  N   N1        1.0  0.710833057143793  0.5550297566074505  0.394221457301718  1.0000
  C   C1        1.0  0.649993049599004  0.5160679842921527  0.38203114086675666  1.0000
  C   C2        1.0  0.5743147670908546  0.46760383039492986  0.36686771073910707  1.0000
  C   C3        1.0  0.5554233732297797  0.3893486387786316  0.2503041156783312  1.0000
  C   C4        1.0  0.48194270729751376  0.34217070441483444  0.23548977014253697  1.0000
  C   C5        1.0  0.4263023067265749  0.3728291175746741  0.33720360261780835  1.0000
  C   C6        1.0  0.3482122856852796  0.3228179039548045  0.32155079961288235  1.0000
  C   C7        1.0  0.2866236521137335  0.4133344261119649  0.3502359941650782  1.0000
  C   C8        1.0  0.2129994935679566  0.36593092739687383  0.33543719894341695  1.0000
  C   C9        1.0  0.15037841215427755  0.4594320185725167  0.3645221851552158  1.0000
  N   N2        1.0  0.10004401291430343  0.5346004163164988  0.38790571673687135  1.0000
  C   C10       1.0  0.20037876585240597  0.22772472619802553  0.29192547986647277  1.0000
  C   C11       1.0  0.26110991611837636  0.13719290683907845  0.26323098583802584  1.0000
  C   C12       1.0  0.3346115371861146  0.1841603515707646  0.2778053821850943  1.0000
  C   C13       1.0  0.4458888760267379  0.4516310327731581  0.4540099742949986  1.0000
  C   C14       1.0  0.5194207131197757  0.49859911093529913  0.46865167647624417  1.0000
  H   H1        1.0  0.5974318904297697  0.36509099938310124  0.17065089526105282  1.0000
  H   H2        1.0  0.46841492771321047  0.2833861030442657  0.14343517903244957  1.0000
  H   H3        1.0  0.295814639486088  0.5212630491753195  0.3821593540470359  1.0000
  H   H4        1.0  0.14366977649599025  0.1900396359582572  0.28020996679790156  1.0000
  H   H5        1.0  0.2512213959035303  0.030186664131375496  0.2299722529521764  1.0000
  H   H6        1.0  0.3807860535012653  0.11135274791143202  0.2567499963148017  1.0000
  H   H7        1.0  0.404598464816219  0.4752774085780831  0.5351026427420282  1.0000
  H   H8        1.0  0.5334806434318335  0.5587491788765822  0.5595466612286737  1.0000
  C   C15       1.0  0.9031216544952032  0.12138734512987503  0.39172178392565593  1.0000
  C   C16       1.0  0.8881765765164902  0.20661950840920013  0.2615817385958559  1.0000
  C   C17       1.0  0.8803171538474606  0.14288599973253824  0.13177193122649933  1.0000
  C   C18       1.0  0.8873394421625097  0.9932427574386162  0.12980677003592914  1.0000
  C   C19       1.0  0.9009208265549594  0.9065102579642161  0.25794999090555437  1.0000
  C   C20       1.0  0.9077625839103327  0.9682312739346866  0.390417799101477  1.0000
  F   F1        1.0  0.8667436474270986  0.2267845312104182  0.007152825040702919  1.0000
  H   H9        1.0  0.9817378725228237  0.1936007071655632  0.7128202298277149  1.0000
  H   H10       1.0  0.8843361855338794  0.3234625430772844  0.25979695457264085  1.0000
  H   H11       1.0  0.8815397563201754  0.9439644042055814  0.028962807438243313  1.0000
  H   H12       1.0  0.9042999707331002  0.7902074900751275  0.253928590975405  1.0000
  H   H13       1.0  0.9576979563093699  0.6662808457748267  0.6084855196281942  1.0000
  C   C21       1.0  0.9041145144632707  0.5485679671327102  0.9672696787920004  1.0000
  C   C22       1.0  0.9577963129668563  0.6308648332036999  0.03301164141051905  1.0000
  C   C23       1.0  0.014782299782945438  0.7011072042097152  0.9512157937814362  1.0000
  C   C24       1.0  0.018546593918055347  0.6893606990306094  0.8021940467451287  1.0000
  C   C25       1.0  0.965123151015962  0.6102275784119446  0.7347407207120793  1.0000
  C   C26       1.0  0.9067696998990864  0.5410506190075308  0.8148699210238233  1.0000
  N   N3        1.0  0.06932516954641853  0.7831582140813387  0.01994932003396622  1.0000
  H   H14       1.0  0.7903114177960403  0.2725913868190044  0.09544562528983726  1.0000
  H   H15       1.0  0.9564819264197095  0.6377743967419955  0.1490431773190224  1.0000
  H   H16       1.0  0.06253958639506972  0.7427773662818917  0.7378685761937653  1.0000
  H   H17       1.0  0.9684500931722115  0.6060409427188287  0.6185195042801466  1.0000
  H   H18       1.0  0.8278368612972812  0.3596813582988949  0.5503380556954338  1.0000
  H   H19       1.0  0.06719385633149533  0.79231487892282  0.1313407085840579  1.0000
  H   H20       1.0  0.11222796047070194  0.8354978837090639  0.9599318699066819  1.0000
  Zn  Zn1       1.0  0.8231509354279413  0.5491303688244376  0.39240722337160716  1.0000
  Zn  Zn2       1.0  0.9877260891867929  0.5404879452226441  0.38973183325984395  1.0000
  C   C27       1.0  0.9062346621821356  0.5367274290223505  0.6546641998782794  1.0000
  C   C28       1.0  0.9046441700022726  0.5528926087252999  0.1274749663850006  1.0000
  C   C29       1.0  0.906863454475068  0.8082109570654662  0.3849133957277284  1.0000
  C   C30       1.0  0.9040153122985176  0.2814073505710637  0.3972258510581199  1.0000
  O   O1        1.0  0.9672773059265799  0.5510579526556949  0.1802260374762812  1.0000
  O   O2        1.0  0.9685102526883027  0.5320016014653162  0.5998821558311802  1.0000
  O   O3        1.0  0.9690171731890226  0.7512280146416717  0.38205648432622086  1.0000
  O   O4        1.0  0.9667703289850615  0.33183155370288553  0.398051601669688  1.0000
  O   O5        1.0  0.8441066394682349  0.7577867632950678  0.3840874558671492  1.0000
  O   O6        1.0  0.8435997282169  0.5385620831807045  0.601913047754927  1.0000
  O   O7        1.0  0.8423667757943163  0.5576183995102072  0.18225519435404097  1.0000
  O   O8        1.0  0.8418597991321579  0.3383919892847238  0.40008086676438726  1.0000
