data_image0
_chemical_formula_structural       NC9NC3NH7C8H6C7OCH10Zn2C4O8
_chemical_formula_sum              "N3 C32 H23 O9 Zn2"
_cell_length_a       16.053384444249904
_cell_length_b       9.27514070457351
_cell_length_c       10.300835455316061
_cell_angle_alpha    85.70757600904483
_cell_angle_beta     89.8165277291342
_cell_angle_gamma    89.76770978158073

_space_group_name_H-M_alt    "P 1"
_space_group_IT_number       1

loop_
  _space_group_symop_operation_xyz
  'x, y, z'

loop_
  _atom_site_type_symbol
  _atom_site_label
  _atom_site_symmetry_multiplicity
  _atom_site_fract_x
  _atom_site_fract_y
  _atom_site_fract_z
  _atom_site_occupancy
  N   N1        1.0  0.7934811396875022  0.5583230084415232  0.5680807491076925  1.0000
  C   C1        1.0  0.7425768807281229  0.5352037361668425  0.49319608977018464  1.0000
  C   C2        1.0  0.6793168374643429  0.5064777934287295  0.40017107463177815  1.0000
  C   C3        1.0  0.6928344693749425  0.4930440468574549  0.26943095851651333  1.0000
  C   C4        1.0  0.6160345344295494  0.464916866907904  0.2171259076220196  1.0000
  C   C5        1.0  0.5589412454365476  0.4627558603557085  0.318776025110759  1.0000
  C   C6        1.0  0.4681293193251113  0.4363085324699521  0.3084744100482167  1.0000
  C   C7        1.0  0.4125306484545345  0.4837445509465963  0.40246713184502625  1.0000
  C   C8        1.0  0.3268308339568295  0.45866170719994237  0.3926006627523498  1.0000
  C   C9        1.0  0.2704640179824445  0.5080352459452235  0.48896903782822304  1.0000
  N   N2        1.0  0.2251617170704328  0.5477246083218914  0.5664341213608444  1.0000
  C   C10       1.0  0.2960029198956683  0.3860185284847514  0.2887549140050285  1.0000
  C   C11       1.0  0.3505938636406139  0.3387153411774697  0.19497410972656093  1.0000
  C   C12       1.0  0.4360865542114409  0.3636141263568322  0.2044436684731583  1.0000
  N   N3        1.0  0.5982988427644241  0.4882803310920641  0.43036696020713766  1.0000
  H   H1        1.0  0.7516184871217846  0.5026201318380015  0.21784401881320847  1.0000
  H   H2        1.0  0.6036677329853974  0.44960646267284954  0.11593466793663776  1.0000
  H   H3        1.0  0.4352081749504172  0.5419972910781616  0.4823767474445039  1.0000
  H   H4        1.0  0.2298602537309967  0.3660711432191588  0.2802811462487613  1.0000
  H   H5        1.0  0.3266368531974681  0.28228515633154583  0.11483457648112251  1.0000
  H   H6        1.0  0.476959795115201  0.3242512959799589  0.1311239362407679  1.0000
  H   H7        1.0  0.5721644160727047  0.49092704867396236  0.5231163794502334  1.0000
  C   C13       1.0  0.0067948985929573436  0.1296448966104338  0.5663589752681772  1.0000
  C   C14       1.0  0.018665503169169595  0.2127666164278275  0.4478654550459453  1.0000
  C   C15       1.0  0.037801074907854115  0.14695461512833652  0.33399813185661126  1.0000
  C   C16       1.0  0.045523915722213155  0.996835691199401  0.33643718827507874  1.0000
  C   C17       1.0  0.03258609148948577  0.9121588181419216  0.4528066727194189  1.0000
  C   C18       1.0  0.011855825772372212  0.97639147586367  0.5681670837346666  1.0000
  C   C19       1.0  0.0657951854722536  0.9292440305370485  0.21893603258001249  1.0000
  C   C20       1.0  0.08276800299453302  0.8726375999660598  0.12056236095391082  1.0000
  H   H8        1.0  0.020482417214468644  0.20589152331160743  0.8853625403480504  1.0000
  H   H9        1.0  0.015082992409294557  0.329678481306535  0.44390189763270493  1.0000
  H   H10       1.0  0.047389422283540705  0.2134383688513397  0.24419535223407834  1.0000
  H   H11       1.0  0.03678501625791597  0.795448458224265  0.45263025139008844  1.0000
  H   H12       1.0  0.017874581132880214  0.6777695700959373  0.7831110003975832  1.0000
  H   H13       1.0  0.0976664938930385  0.8229473490629511  0.034210936322904395  1.0000
  C   C21       1.0  0.009249246586133578  0.5529464840781069  0.1859466052075902  1.0000
  C   C22       1.0  0.08614365085484588  0.6248306673309763  0.1798761007739689  1.0000
  C   C23       1.0  0.12439833340066266  0.6625746181619725  0.059600453101968716  1.0000
  C   C24       1.0  0.08634373723475953  0.6250173686881972  0.9445769660534699  1.0000
  C   C25       1.0  0.009401514369761003  0.5530898682553607  0.948579445707507  1.0000
  C   C26       1.0  0.9712150732218302  0.5177885103127855  0.06969600054623215  1.0000
  C   C27       1.0  0.20781068876034725  0.7356849202770996  0.05447919207448049  1.0000
  O   O1        1.0  0.2708393179495807  0.6288881405531865  0.0615197307559774  1.0000
  C   C28       1.0  0.3494945328420933  0.6961658532680066  0.05682914537930239  1.0000
  H   H14       1.0  0.9802544400133401  0.5239094899929121  0.5157694027256671  1.0000
  H   H15       1.0  0.1166049184858371  0.6517317721578659  0.2685580726507215  1.0000
  H   H16       1.0  0.11694224730233405  0.6520479608399979  0.8520838713390122  1.0000
  H   H17       1.0  0.9119147129002505  0.4623372993061723  0.07361546234892735  1.0000
  H   H18       1.0  0.8647096131552579  0.41595620372376346  0.7489750160823143  1.0000
  H   H19       1.0  0.2126392558359849  0.8059496877213833  0.1372952807981687  1.0000
  H   H20       1.0  0.21283238710918617  0.8059669399870253  0.9621805436403243  1.0000
  H   H21       1.0  0.39833831315085244  0.6110026011075669  0.06243920314352859  1.0000
  H   H22       1.0  0.35832060159543366  0.7629035607098369  0.14108283831333268  1.0000
  H   H23       1.0  0.35852434585097753  0.7629587054987286  0.963571174861878  1.0000
  Zn  Zn1       1.0  0.9180548057508879  0.5552606954596493  0.5676130515051185  1.0000
  Zn  Zn2       1.0  0.10058795946155485  0.5507751774082836  0.5669124066688715  1.0000
  C   C29       1.0  0.009336530961929329  0.5473192377830347  0.80441323130708  1.0000
  C   C30       1.0  0.009308238405094428  0.5587184052498239  0.33011235054920257  1.0000
  C   C31       1.0  0.010893898992046626  0.8163374788911084  0.5626508433370775  1.0000
  C   C32       1.0  0.007750797749875198  0.2896984335067424  0.5718748042886265  1.0000
  O   O2        1.0  0.07859837955806714  0.5589469941437182  0.3782297871614229  1.0000
  O   O3        1.0  0.07858482337027373  0.5436851567612846  0.7557636453589325  1.0000
  O   O4        1.0  0.07984148422188952  0.7609208118568304  0.5605388133496112  1.0000
  O   O5        1.0  0.07734165646245739  0.3417113508740607  0.5734545220705886  1.0000
  O   O6        1.0  0.9413010464603863  0.7643245235261282  0.5610709363356707  1.0000
  O   O7        1.0  0.9400443959442739  0.5470906005978458  0.75629570280784  1.0000
  O   O8        1.0  0.9400579515755039  0.5623523874441965  0.37876028331712425  1.0000
  O   O9        1.0  0.9388012284342894  0.345116733880906  0.5739851155587146  1.0000
