data_image0
_chemical_formula_structural       NC9NC4H8C12H9C6NO2H3Zn2C4O8
_chemical_formula_sum              "N3 C35 H20 O10 Zn2"
_cell_length_a       16.32274767691083
_cell_length_b       10.299137764757564
_cell_length_c       9.273395971720356
_cell_angle_alpha    84.94328469474783
_cell_angle_beta     89.35243876569035
_cell_angle_gamma    89.54283159448198

_space_group_name_H-M_alt    "P 1"
_space_group_IT_number       1

loop_
  _space_group_symop_operation_xyz
  'x, y, z'

loop_
  _atom_site_type_symbol
  _atom_site_label
  _atom_site_symmetry_multiplicity
  _atom_site_fract_x
  _atom_site_fract_y
  _atom_site_fract_z
  _atom_site_occupancy
  N   N1        1.0  0.7735401573734368  0.4271869369214272  0.39519619143316875  1.0000
  C   C1        1.0  0.7212700168937509  0.380310043206715  0.334860835097482  1.0000
  C   C2        1.0  0.6562976146273284  0.32208857637648936  0.25992384006479785  1.0000
  C   C3        1.0  0.6679614864787409  0.24245204474055027  0.15741859471521513  1.0000
  C   C4        1.0  0.5886500956382035  0.20358895782309808  0.10739944373443877  1.0000
  C   C5        1.0  0.5296377127220344  0.2604641113643784  0.18060965064656642  1.0000
  C   C6        1.0  0.4397211956694392  0.2454324826792602  0.16126477331575084  1.0000
  C   C7        1.0  0.3840327891904788  0.31172422443652303  0.2465877787512325  1.0000
  C   C8        1.0  0.299342195565474  0.29887747496570727  0.2300544205856754  1.0000
  C   C9        1.0  0.24323902144162718  0.36720715479373534  0.3179995588633666  1.0000
  N   N2        1.0  0.1981510270341125  0.42213297744081113  0.388692554694132  1.0000
  C   C10       1.0  0.2692871189136428  0.2196317630767817  0.1280607606995432  1.0000
  C   C11       1.0  0.3236534840841072  0.1534278260141524  0.042851151207111464  1.0000
  C   C12       1.0  0.4081857645674131  0.1659285450672603  0.05893900303227029  1.0000
  C   C13       1.0  0.5672760341289766  0.34339442641889595  0.28735158806423033  1.0000
  H   H1        1.0  0.7269122389498949  0.2114851764561669  0.11755662863932569  1.0000
  H   H2        1.0  0.5804456958469429  0.13850212169802334  0.023621829112481008  1.0000
  H   H3        1.0  0.4060588306479724  0.37358886088826054  0.3262111432292938  1.0000
  H   H4        1.0  0.2039101399012707  0.20904870050469349  0.11444095260507892  1.0000
  H   H5        1.0  0.30023061264841827  0.09212387833793811  0.9639497149692495  1.0000
  H   H6        1.0  0.44804098000019627  0.11296965283519043  0.9907772387421754  1.0000
  H   H7        1.0  0.5503689163239104  0.3075882546653319  0.4001989789966913  1.0000
  H   H8        1.0  0.5505449263100847  0.44769798424467355  0.26267159939757545  1.0000
  C   C14       1.0  0.9857704867896141  0.043259450831053765  0.3921029046782907  1.0000
  C   C15       1.0  0.9859016470068686  0.0545412493612365  0.2400908561667512  1.0000
  C   C16       1.0  0.9860493088172256  0.9431303373222921  0.16285776929140192  1.0000
  C   C17       1.0  0.9860639883945456  0.8192878624167018  0.23969138465289253  1.0000
  C   C18       1.0  0.9859285256418872  0.8060502175952495  0.39179823341172315  1.0000
  C   C19       1.0  0.9857839823840078  0.9185623098298741  0.46706753885165075  1.0000
  C   C20       1.0  0.9861870930614204  0.956110290643072  0.002044055416410946  1.0000
  C   C21       1.0  0.03568651513359255  0.873937198449121  0.9236237223941108  1.0000
  C   C22       1.0  0.0357143826513948  0.8864067342275362  0.7722525444244014  1.0000
  C   C23       1.0  0.9864502505156513  0.980690118623699  0.6975872999499884  1.0000
  C   C24       1.0  0.9370554827398972  0.06276517262161362  0.7741417156963681  1.0000
  C   C25       1.0  0.9368216039136105  0.050792976579740585  0.9255170245811452  1.0000
  H   H9        1.0  0.9870230803772114  0.1502068180284981  0.181379857121843  1.0000
  H   H10       1.0  0.9850487081684562  0.7330858819008688  0.180739126867016  1.0000
  H   H11       1.0  0.985680572515158  0.9091448969363226  0.5843179544071277  1.0000
  H   H12       1.0  0.9851518719997084  0.5737794922476048  0.6788999113666134  1.0000
  H   H13       1.0  0.0751146693799707  0.8012741630565346  0.9792909156740429  1.0000
  H   H14       1.0  0.07413897239499523  0.8230944381948656  0.7128007611555072  1.0000
  H   H15       1.0  0.9865516206947987  0.9901499921415704  0.5804144237151969  1.0000
  H   H16       1.0  0.8987325031792621  0.1355584597740127  0.7161580605125936  1.0000
  H   H17       1.0  0.8972961966214801  0.11434747755053398  0.9826875036674476  1.0000
  C   C26       1.0  0.9863165856587961  0.42863925073985915  0.9680051118181181  1.0000
  C   C27       1.0  0.9132981901040801  0.4591530906471917  0.03969846242384101  1.0000
  C   C28       1.0  0.840047915542237  0.4773888321160378  0.9643841085578572  1.0000
  C   C29       1.0  0.8377379115150181  0.46548423287581264  0.8151295806267713  1.0000
  C   C30       1.0  0.9107129849254127  0.4371963751178165  0.7419983337227797  1.0000
  C   C31       1.0  0.9853824121377512  0.4206704159880543  0.8158960316127483  1.0000
  N   N3        1.0  0.7617878028005736  0.4833192785295395  0.7381486662746837  1.0000
  O   O1        1.0  0.6905919163485849  0.5120791066152639  0.8100026824595337  1.0000
  O   O2        1.0  0.7591763018282734  0.4726468375219066  0.6051973652727498  1.0000
  H   H18       1.0  0.16556752884271286  0.2810031170702043  0.08173919727525258  1.0000
  H   H19       1.0  0.7849123938556206  0.49958140681682917  0.023603049425394255  1.0000
  H   H20       1.0  0.10760065272957964  0.32505235821453415  0.5426120974603892  1.0000
  Zn  Zn1       1.0  0.8960736785573117  0.4257249091643354  0.39332772104653885  1.0000
  Zn  Zn2       1.0  0.07561749678428775  0.4235842361930258  0.3905728562901587  1.0000
  C   C32       1.0  0.9855561075127068  0.4170026156789155  0.6556285682263379  1.0000
  C   C33       1.0  0.9861370286252328  0.4323081437253986  0.12827212006971433  1.0000
  C   C34       1.0  0.9859007796969537  0.6619206458325744  0.38610293846563914  1.0000
  C   C35       1.0  0.9857922947671186  0.18738855314752167  0.39779782836227645  1.0000
  O   O3        1.0  0.05421270978715298  0.43272141728187824  0.1810137375415095  1.0000
  O   O4        1.0  0.05375003027875214  0.4149636449715066  0.6007956569563494  1.0000
  O   O5        1.0  0.05402743726754044  0.6127380485746912  0.3831518175400703  1.0000
  O   O6        1.0  0.05393524165340446  0.23494702471748713  0.39865746964842064  1.0000
  O   O7        1.0  0.91775587241871  0.6143621213718657  0.38524310862078304  1.0000
  O   O8        1.0  0.917478465834304  0.41658927892489106  0.6028868704377041  1.0000
  O   O9        1.0  0.9179411473001213  0.4343470222879093  0.1831032153225678  1.0000
  O   O10       1.0  0.9176636790418483  0.23657261941671637  0.4007470556713528  1.0000
