data_image0
_chemical_formula_structural       NC12NC2H8C9H10C7NC2OH7Zn2C4O8
_chemical_formula_sum              "N3 C36 H25 O9 Zn2"
_cell_length_a       17.80743265337812
_cell_length_b       10.297183801781406
_cell_length_c       10.300337369960102
_cell_angle_alpha    85.53391517618795
_cell_angle_beta     91.53453705670806
_cell_angle_gamma    89.4353606467078

_space_group_name_H-M_alt    "P 1"
_space_group_IT_number       1

loop_
  _space_group_symop_operation_xyz
  'x, y, z'

loop_
  _atom_site_type_symbol
  _atom_site_label
  _atom_site_symmetry_multiplicity
  _atom_site_fract_x
  _atom_site_fract_y
  _atom_site_fract_z
  _atom_site_occupancy
  N   N1        1.0  0.7073958876875975  0.4070410630588046  0.6008333957941601  1.0000
  C   C1        1.0  0.6565750693113506  0.4366063299814067  0.5321277640214879  1.0000
  C   C2        1.0  0.5933489565826758  0.4733833760564341  0.44666660626487253  1.0000
  C   C3        1.0  0.605073786935571  0.5274158506667179  0.32003435211877296  1.0000
  C   C4        1.0  0.5437550665695718  0.5626889486227418  0.23696962714496084  1.0000
  C   C5        1.0  0.47055720325854156  0.5441930928337173  0.27987719705127034  1.0000
  C   C6        1.0  0.457855605901849  0.49004179440296514  0.4069776040186428  1.0000
  C   C7        1.0  0.5200316421469475  0.4547719508204666  0.4900258173566616  1.0000
  C   C8        1.0  0.3800895773204288  0.4704315753134265  0.4527457025732693  1.0000
  C   C9        1.0  0.3613051866035666  0.497629051981737  0.5797665169143926  1.0000
  C   C10       1.0  0.2880773774946535  0.4791747822813097  0.6227146276445399  1.0000
  C   C11       1.0  0.23269100402692522  0.4332687160975297  0.5394799293068564  1.0000
  C   C12       1.0  0.1573266151235628  0.4142615047109137  0.5838290855606227  1.0000
  N   N2        1.0  0.0967389834451193  0.39898098507946056  0.6194827562759095  1.0000
  C   C13       1.0  0.2507839111245596  0.40590229471606065  0.4130021101934602  1.0000
  C   C14       1.0  0.3239588612198965  0.4243713468627526  0.3697981290467809  1.0000
  H   H1        1.0  0.6615388037163769  0.542242806201555  0.28559390497708814  1.0000
  H   H2        1.0  0.5529512700297806  0.6047950669949134  0.13918075278467268  1.0000
  H   H3        1.0  0.42391658203622984  0.5738350773690575  0.2142791960486945  1.0000
  H   H4        1.0  0.5115338373131195  0.41128013182330214  0.5876908719233391  1.0000
  H   H5        1.0  0.4029821146513086  0.5348206006907232  0.6453172020763218  1.0000
  H   H6        1.0  0.2746352109745008  0.5010292297615286  0.7207049576848463  1.0000
  H   H7        1.0  0.20839009432919672  0.36997839514656494  0.3478637799946256  1.0000
  H   H8        1.0  0.3368726572811977  0.40098093000762636  0.2721117882550166  1.0000
  C   C15       1.0  0.902073662040182  0.021535347795229143  0.6103423550249509  1.0000
  C   C16       1.0  0.899882972188822  0.0314408385381586  0.47358695812242035  1.0000
  C   C17       1.0  0.8987604439429614  0.9198992273180038  0.40352316081467077  1.0000
  C   C18       1.0  0.8998741687537549  0.7962699285594627  0.4730568994784068  1.0000
  C   C19       1.0  0.9020684130720644  0.7844765834471543  0.6099853095062262  1.0000
  C   C20       1.0  0.9031531229598344  0.8975857337263508  0.6777341657503648  1.0000
  C   C21       1.0  0.8963908503202574  0.9400449141100419  0.2556125326029963  1.0000
  C   C22       1.0  0.8524002207237221  0.8422387617739274  0.18121651228017166  1.0000
  C   C23       1.0  0.9379895334334983  0.8407751376247539  0.18119091572951906  1.0000
  H   H9        1.0  0.9029249386682615  0.3452567508037139  0.6630389375975079  1.0000
  H   H10       1.0  0.8990374028035271  0.12668726654261153  0.42079183746418125  1.0000
  H   H11       1.0  0.8990502580524625  0.7086873383241125  0.4217278018035595  1.0000
  H   H12       1.0  0.9048429096342807  0.8892160045396651  0.783243808189517  1.0000
  H   H13       1.0  0.9062027430413545  0.5549860319294466  0.8686040421079684  1.0000
  H   H14       1.0  0.8956299109987619  0.04077628563393554  0.20807148954691446  1.0000
  H   H15       1.0  0.8273311677154487  0.7591201563626797  0.23911274935489812  1.0000
  H   H16       1.0  0.8258954629514889  0.8836605304731393  0.08806975276110296  1.0000
  H   H17       1.0  0.964911391736225  0.756768258852692  0.23907228218394416  1.0000
  H   H18       1.0  0.9615079623150478  0.8813391150938241  0.08802799798916872  1.0000
  C   C24       1.0  0.9020693825995403  0.40300643784621415  0.22882364879269046  1.0000
  C   C25       1.0  0.9795687222436495  0.3757737886423631  0.23351669736634917  1.0000
  C   C26       1.0  0.018669941112435806  0.3620337112893073  0.11879601340185508  1.0000
  C   C27       1.0  0.9795755477198983  0.37577203949094784  0.9982247336667487  1.0000
  C   C28       1.0  0.9020726684266529  0.40300544688466533  0.9915039991012384  1.0000
  C   C29       1.0  0.8637518821095959  0.4164704817458351  0.10734101743141511  1.0000
  C   C30       1.0  0.10024323099592203  0.3333670295116822  0.1254788941743492  1.0000
  N   N3        1.0  0.1420695811336825  0.3186672900210372  0.019981180800143328  1.0000
  C   C31       1.0  0.21157906794529824  0.2942392111655123  0.07122690650761054  1.0000
  C   C32       1.0  0.20960316533798107  0.29493423382603723  0.20454930171461583  1.0000
  O   O1        1.0  0.1402394631444981  0.3193112996989962  0.23495886834017998  1.0000
  H   H19       1.0  0.8725468437494227  0.41339234554006343  0.5544624120800905  1.0000
  H   H20       1.0  0.009653881611067172  0.3652013528725777  0.32660831761250897  1.0000
  H   H21       1.0  0.009596898944954857  0.36522289765825255  0.9095160154321325  1.0000
  H   H22       1.0  0.8039735239972968  0.43747604103879834  0.10293760641022631  1.0000
  H   H23       1.0  0.8725334333176353  0.4133924467796757  0.6615137302403653  1.0000
  H   H24       1.0  0.2605553157651086  0.2770269595596917  0.01480012307671097  1.0000
  H   H25       1.0  0.25629647935131983  0.27852486880916105  0.2734140217980432  1.0000
  Zn  Zn1       1.0  0.8197518982444114  0.40471163040180835  0.6062226863723996  1.0000
  Zn  Zn2       1.0  0.9843829705132568  0.4012998213004251  0.6141040629096324  1.0000
  C   C33       1.0  0.9020704148114436  0.39783057758353335  0.8473434576499563  1.0000
  C   C34       1.0  0.9020662517016608  0.40818247593970525  0.3729835043863057  1.0000
  C   C35       1.0  0.9020655052768127  0.6402645330979415  0.6048778526104277  1.0000
  C   C36       1.0  0.9020711050702774  0.16574696085032437  0.6154491767002377  1.0000
  O   O2        1.0  0.9645418349268021  0.40861917050789276  0.4243558128138414  1.0000
  O   O3        1.0  0.96454600613979  0.3948034188551546  0.8019525582922487  1.0000
  O   O4        1.0  0.9645411994194134  0.5905719213812246  0.6061598257864653  1.0000
  O   O5        1.0  0.964546585469261  0.21285067843898453  0.620148445258561  1.0000
  O   O6        1.0  0.8395882271079022  0.5931607744289462  0.6001783013271127  1.0000
  O   O7        1.0  0.8395930338137878  0.39739383264354644  0.7959709638621344  1.0000
  O   O8        1.0  0.8395888626443293  0.4112095390285635  0.41837265712419525  1.0000
  O   O9        1.0  0.8395936131842008  0.21544103766819123  0.6141653869336208  1.0000
