data_image0
_chemical_formula_structural       NC12NC2H8C6NO2H5C12H10Zn2C4O8
_chemical_formula_sum              "N3 C36 H23 O10 Zn2"
_cell_length_a       17.80743265337812
_cell_length_b       9.273423624067512
_cell_length_c       10.299141136925906
_cell_angle_alpha    85.47984628064665
_cell_angle_beta     91.556080336852
_cell_angle_gamma    90.04087344610896

_space_group_name_H-M_alt    "P 1"
_space_group_IT_number       1

loop_
  _space_group_symop_operation_xyz
  'x, y, z'

loop_
  _atom_site_type_symbol
  _atom_site_label
  _atom_site_symmetry_multiplicity
  _atom_site_fract_x
  _atom_site_fract_y
  _atom_site_fract_z
  _atom_site_occupancy
  N   N1        1.0  0.7156814681979143  0.5628007704969753  0.6001110817910793  1.0000
  C   C1        1.0  0.665026188205635  0.5956517547253284  0.5313843987521594  1.0000
  C   C2        1.0  0.6020059940085717  0.6365159934412399  0.44589705529544466  1.0000
  C   C3        1.0  0.6140331240091885  0.6965536819170481  0.31922616894657696  1.0000
  C   C4        1.0  0.5529116621695069  0.7357471909550244  0.23613616496240297  1.0000
  C   C5        1.0  0.47961022285031485  0.7151958341443603  0.2790568933180284  1.0000
  C   C6        1.0  0.4666057023663549  0.6550260537256931  0.406196045789164  1.0000
  C   C7        1.0  0.5285844963574584  0.6158361636565903  0.48926953448304555  1.0000
  C   C8        1.0  0.38872991736972456  0.6332364010788232  0.45197813673235876  1.0000
  C   C9        1.0  0.3701392407350308  0.6633943275514889  0.5790080122101333  1.0000
  C   C10       1.0  0.2968081183416852  0.6428891336716231  0.6219692722791028  1.0000
  C   C11       1.0  0.2411233473494468  0.5919433491645163  0.5387388801371675  1.0000
  C   C12       1.0  0.1656525744799478  0.57082372486093  0.5831015967864643  1.0000
  N   N2        1.0  0.10497941723268661  0.5538449673361101  0.6187661691375625  1.0000
  C   C13       1.0  0.2590216271864306  0.5615976532988327  0.41225214265423493  1.0000
  C   C14       1.0  0.3322999250849679  0.5821193448076416  0.3690349685402845  1.0000
  H   H1        1.0  0.6705811614921086  0.7130284167917551  0.2847751669096801  1.0000
  H   H2        1.0  0.5623436343462187  0.7825327266665434  0.1383173188749598  1.0000
  H   H3        1.0  0.4331362852726456  0.748130988814061  0.21343827746041955  1.0000
  H   H4        1.0  0.5198424357899809  0.5675120204596036  0.5869650477165871  1.0000
  H   H5        1.0  0.41205751020884324  0.7046695013575486  0.6445549272083126  1.0000
  H   H6        1.0  0.2835207221793375  0.6671237727954489  0.7199662741361785  1.0000
  H   H7        1.0  0.2163942980949429  0.5217299112778724  0.34711718185723295  1.0000
  H   H8        1.0  0.3450496395252656  0.5561791037542636  0.27134256161334425  1.0000
  C   C15       1.0  0.9080077052524675  0.13474159174964218  0.6097620776242727  1.0000
  C   C16       1.0  0.8970859448168985  0.21890765372669163  0.4910265669731302  1.0000
  C   C17       1.0  0.8931153627919889  0.1549965237566413  0.37190077806427846  1.0000
  C   C18       1.0  0.9003156165338012  0.004378867386802154  0.37229667246268083  1.0000
  C   C19       1.0  0.9099107334409537  0.9191487417063967  0.48928803297736523  1.0000
  C   C20       1.0  0.9126603109510686  0.9818929531015287  0.6091267038701784  1.0000
  N   N3        1.0  0.8825554236357166  0.2430704785443496  0.25126891476039903  1.0000
  O   O1        1.0  0.8753475040332572  0.39084406742084155  0.25099609995514727  1.0000
  O   O2        1.0  0.8795435695120655  0.18685798901021267  0.14500130912383646  1.0000
  H   H9        1.0  0.8880059231548211  0.3963238115518737  0.8219594369841061  1.0000
  H   H10       1.0  0.8934282591075096  0.33546134134794214  0.4911980807271892  1.0000
  H   H11       1.0  0.8977661253455135  0.9520190808218343  0.28198416202790644  1.0000
  H   H12       1.0  0.9133984079126268  0.8028393042402956  0.4861842846145752  1.0000
  H   H13       1.0  0.879253238353317  0.8516034328499924  0.922226015939875  1.0000
  C   C21       1.0  0.910249302380027  0.558442315213346  0.2280472144927317  1.0000
  C   C22       1.0  0.9887977703940724  0.5721719427468046  0.22998024444517418  1.0000
  C   C23       1.0  0.028712189721882053  0.5790049084849991  0.11383095773834273  1.0000
  C   C24       1.0  0.9890164069666124  0.5719229636305097  0.9947252639826067  1.0000
  C   C25       1.0  0.9104187371491609  0.5581921756030257  0.9908416115422325  1.0000
  C   C26       1.0  0.8715191316109161  0.551534020073202  0.10797156033975841  1.0000
  C   C27       1.0  0.11180857564788904  0.5935312900523417  0.11692067119348448  1.0000
  C   C28       1.0  0.156080416062085  0.5136263471984355  0.03689869690110159  1.0000
  C   C29       1.0  0.23428995526939467  0.5274788781196307  0.04004440285055644  1.0000
  C   C30       1.0  0.26912908409339376  0.6210287543257433  0.12277639796864426  1.0000
  C   C31       1.0  0.22582917161428417  0.7009209072857625  0.202600256251396  1.0000
  C   C32       1.0  0.14760193435052504  0.6874304730288581  0.19992315221449086  1.0000
  H   H14       1.0  0.8800308873984558  0.5532345223588144  0.554774028029432  1.0000
  H   H15       1.0  0.019216463511108284  0.5755903425832585  0.3221861163021098  1.0000
  H   H16       1.0  0.019397678720817435  0.5791236147975958  0.9047472895916151  1.0000
  H   H17       1.0  0.8109327261798589  0.540948056814297  0.10576464333624735  1.0000
  H   H18       1.0  0.7620259562770497  0.5331921937036794  0.7761530981771467  1.0000
  H   H19       1.0  0.1303106126154705  0.43913003316144605  0.973228516784884  1.0000
  H   H20       1.0  0.26792130962233274  0.46532082066296043  0.9784895778251967  1.0000
  H   H21       1.0  0.3296752540055603  0.6316112138968022  0.12503018423079304  1.0000
  H   H22       1.0  0.25287973741201797  0.7736850011616796  0.266413746055028  1.0000
  H   H23       1.0  0.11506573852616575  0.7517351705582811  0.2614241316674666  1.0000
  Zn  Zn1       1.0  0.8280244308421548  0.560212465645227  0.6055020274028253  1.0000
  Zn  Zn2       1.0  0.9926363898277186  0.5564215027047654  0.6133858261865093  1.0000
  C   C33       1.0  0.9103534559617443  0.5524931668625483  0.8466613409073009  1.0000
  C   C34       1.0  0.9103091722894222  0.5641425800406443  0.37222672488378317  1.0000
  C   C35       1.0  0.911775854128465  0.8217650597938149  0.6040710732829104  1.0000
  C   C36       1.0  0.9088867084497467  0.2948689553736805  0.6148170603614944  1.0000
  O   O3        1.0  0.9727986111697458  0.5646106974491651  0.4236065509383813  1.0000
  O   O4        1.0  0.972800679030706  0.5491467082574404  0.8012647626532068  1.0000
  O   O5        1.0  0.9739484417218166  0.7665871861581626  0.6053713637229647  1.0000
  O   O6        1.0  0.9716507923427662  0.3471702311924971  0.6194998497887922  1.0000
  O   O7        1.0  0.8490099721531318  0.7694637384527376  0.5993880011033561  1.0000
  O   O8        1.0  0.8478622189610002  0.5520249935829551  0.7952813294830907  1.0000
  O   O9        1.0  0.8478601505271369  0.5674889330204016  0.41762155629193476  1.0000
  O   O10       1.0  0.8467123316620506  0.35004845641492155  0.613514952524991  1.0000
