data_image0
_chemical_formula_structural       NC12NC2H8C7N4H6C7NC2OH7Zn2C4O8
_chemical_formula_sum              "N7 C34 H21 O9 Zn2"
_cell_length_a       17.80743265337812
_cell_length_b       9.274187458527196
_cell_length_c       10.300337369960102
_cell_angle_alpha    85.91663798017281
_cell_angle_beta     91.53453705670806
_cell_angle_gamma    89.89930755814211

_space_group_name_H-M_alt    "P 1"
_space_group_IT_number       1

loop_
  _space_group_symop_operation_xyz
  'x, y, z'

loop_
  _atom_site_type_symbol
  _atom_site_label
  _atom_site_symmetry_multiplicity
  _atom_site_fract_x
  _atom_site_fract_y
  _atom_site_fract_z
  _atom_site_occupancy
  N   N1        1.0  0.7141356534484028  0.5613644570350376  0.6105716150592686  1.0000
  C   C1        1.0  0.6634564535216421  0.5941724241567297  0.5420706063494785  1.0000
  C   C2        1.0  0.6004065038648404  0.6349831539100288  0.4568639848306495  1.0000
  C   C3        1.0  0.6123901512714173  0.6949418769331819  0.33060569282325747  1.0000
  C   C4        1.0  0.5512403900240418  0.7340837064675123  0.2477850951681675  1.0000
  C   C5        1.0  0.4779539310502148  0.7135592366495178  0.29056465409889287  1.0000
  C   C6        1.0  0.46499294747044123  0.6534686572827237  0.4172902765404578  1.0000
  C   C7        1.0  0.527000040185456  0.6143304390595956  0.5000943850834783  1.0000
  C   C8        1.0  0.387132985395073  0.6317076014863048  0.46292265154134826  1.0000
  C   C9        1.0  0.3684788713466336  0.6618880805823613  0.5901317013208023  1.0000
  C   C10       1.0  0.29516266577344313  0.641409757989454  0.6329520888952871  1.0000
  C   C11       1.0  0.2395564009740388  0.5904687428453519  0.5493996718002534  1.0000
  C   C12       1.0  0.1641009670003689  0.5693768322639376  0.5936172779543378  1.0000
  N   N2        1.0  0.1034401412086025  0.5524203546855857  0.6291651912368372  1.0000
  C   C13       1.0  0.2575182221533834  0.5601007892844376  0.4227324479715926  1.0000
  C   C14       1.0  0.3307816395213258  0.5805955156531779  0.3796562922908113  1.0000
  H   H1        1.0  0.6689261895809292  0.7113950437851899  0.29626786396885874  1.0000
  H   H2        1.0  0.5606382829603972  0.7808079978731215  0.1502876398885833  1.0000
  H   H3        1.0  0.4314552957568846  0.7464523357242872  0.2251718071265978  1.0000
  H   H4        1.0  0.5182939083310112  0.5660684642410709  0.5974584300486927  1.0000
  H   H5        1.0  0.4103339479453748  0.7031587753622703  0.6559397915191911  1.0000
  H   H6        1.0  0.2818251826635444  0.6656611877590817  0.7310936749344896  1.0000
  H   H7        1.0  0.2149523288815978  0.5202367786179891  0.35734548621533513  1.0000
  H   H8        1.0  0.3435833948364185  0.5546396523371251  0.2818080649599699  1.0000
  C   C15       1.0  0.9069668447206893  0.13357671323749853  0.6174124651056494  1.0000
  C   C16       1.0  0.9458576682161809  0.21435698006725112  0.5204387225444673  1.0000
  C   C17       1.0  0.9896862093526116  0.14628350998759498  0.43258662780043444  1.0000
  C   C18       1.0  0.9959886686250644  0.9952628198277075  0.4392726121132744  1.0000
  C   C19       1.0  0.9560981033179853  0.9133074348669431  0.5343289274065857  1.0000
  C   C20       1.0  0.9106160637193002  0.9801968235445262  0.6223357727973777  1.0000
  C   C21       1.0  0.04353984662607946  0.9251437867694273  0.3456505848137281  1.0000
  N   N3        1.0  0.07965276141113797  0.9970475045279837  0.24771214805035635  1.0000
  N   N4        1.0  0.1154744133755703  0.8961492491027019  0.18836582572675042  1.0000
  N   N5        1.0  0.10230252881514867  0.7672627946195196  0.24686235956578084  1.0000
  N   N6        1.0  0.05759366282227374  0.7825323368239683  0.3452377711991248  1.0000
  H   H9        1.0  0.8085791589436936  0.40532514475523884  0.7430149491286062  1.0000
  H   H10       1.0  0.9438845160084026  0.331411776209124  0.514379617484056  1.0000
  H   H11       1.0  0.019452858163778508  0.2124944430341691  0.3600831856314506  1.0000
  H   H12       1.0  0.9584704781604075  0.7965795451717922  0.5383521657292116  1.0000
  H   H13       1.0  0.8626586973522431  0.6847514351578667  0.8194268506767062  1.0000
  H   H14       1.0  0.0388101363789124  0.6977349919125678  0.40793456976037823  1.0000
  C   C22       1.0  0.9087898223935491  0.5568873166232984  0.23853394416417273  1.0000
  C   C23       1.0  0.9861587168918138  0.5266678072897466  0.24303851386818143  1.0000
  C   C24       1.0  0.025194120408563947  0.5114207267465989  0.1282227339683253  1.0000
  C   C25       1.0  0.9861655339895787  0.5266658662924852  0.007746538062594066  1.0000
  C   C26       1.0  0.9087931034739287  0.5568862169736997  0.001214287614214049  1.0000
  C   C27       1.0  0.8705368150477348  0.5718280885344793  0.11714449829345064  1.0000
  C   C28       1.0  0.10663009609035856  0.479609901033087  0.13470721084196913  1.0000
  N   N7        1.0  0.14838603406779693  0.46329790320235453  0.029107759650681464  1.0000
  C   C29       1.0  0.21777850970340995  0.43619056775917286  0.08018441709541957  1.0000
  C   C30       1.0  0.21580593627393507  0.4369618200754479  0.21351162259776002  1.0000
  O   O1        1.0  0.14655900090285234  0.46401254746367115  0.2440899044220084  1.0000
  H   H15       1.0  0.8793170323296667  0.5684123442525353  0.564244588968783  1.0000
  H   H16       1.0  0.016193233998333723  0.5149357933005148  0.3360569616246418  1.0000
  H   H17       1.0  0.01613635453234319  0.5149597011049643  0.9189648085570754  1.0000
  H   H18       1.0  0.8108590741477022  0.5951375245852484  0.11288646806288116  1.0000
  H   H19       1.0  0.8793036223828198  0.568412456596046  0.6712959078297431  1.0000
  H   H20       1.0  0.2666723103601025  0.41709048703768437  0.023638506593829156  1.0000
  H   H21       1.0  0.26242064897321105  0.4187526860476414  0.28226277243883224  1.0000
  Zn  Zn1       1.0  0.8264805059581092  0.5587795336442558  0.6159447834882881  1.0000
  Zn  Zn2       1.0  0.9910952355666247  0.5549935194297824  0.623802546681183  1.0000
  C   C31       1.0  0.9087660620910785  0.5511437712066767  0.8570179305685999  1.0000
  C   C32       1.0  0.9088114848618587  0.5626310593751038  0.3827296234414046  1.0000
  C   C33       1.0  0.9099224179349292  0.8201677330914268  0.6162302261092962  1.0000
  C   C34       1.0  0.9076550653815859  0.2936053668621623  0.6235173843811959  1.0000
  O   O2        1.0  0.9712891598661071  0.5631156503335695  0.43410495425938045  1.0000
  O   O3        1.0  0.9712271532450617  0.5477845955803318  0.8116060800558611  1.0000
  O   O4        1.0  0.9721600830876116  0.765024866441143  0.6171682736093471  1.0000
  O   O5        1.0  0.9703561738957294  0.3458753910768544  0.6285426607172047  1.0000
  O   O6        1.0  0.8472195114540827  0.767897663290734  0.6112046667639759  1.0000
  O   O7        1.0  0.8462865890730332  0.5506591243516639  0.8056424140417122  1.0000
  O   O8        1.0  0.8463485955207742  0.5659901288722449  0.42813972667239875  1.0000
  O   O9        1.0  0.8454156095033027  0.3487498593049836  0.6225775304306218  1.0000
