data_image0
_chemical_formula_structural       NC12NC2H8C12H16C6OCH8Zn2C4O8
_chemical_formula_sum              "N2 C37 H32 O9 Zn2"
_cell_length_a       17.80743265337812
_cell_length_b       10.298977702784466
_cell_length_c       9.273891588657152
_cell_angle_alpha    86.05747292899095
_cell_angle_beta     91.22048166911064
_cell_angle_gamma    89.4320624770977

_space_group_name_H-M_alt    "P 1"
_space_group_IT_number       1

loop_
  _space_group_symop_operation_xyz
  'x, y, z'

loop_
  _atom_site_type_symbol
  _atom_site_label
  _atom_site_symmetry_multiplicity
  _atom_site_fract_x
  _atom_site_fract_y
  _atom_site_fract_z
  _atom_site_occupancy
  N   N1        1.0  0.7118730071500736  0.3940693357407641  0.4474289397365383  1.0000
  C   C1        1.0  0.6612732832137486  0.42300486651022395  0.371184415625593  1.0000
  C   C2        1.0  0.5983221840888658  0.45899859978894875  0.2763458249812283  1.0000
  C   C3        1.0  0.6104545310140364  0.5118704835592076  0.1358184691971529  1.0000
  C   C4        1.0  0.5494031274533239  0.5463823202788602  0.04363919380511305  1.0000
  C   C5        1.0  0.4760671887672906  0.5282797488435806  0.0912548961822579  1.0000
  C   C6        1.0  0.46295656571782334  0.47529331708000777  0.23230178656788225  1.0000
  C   C7        1.0  0.5248653384134903  0.44078458409795274  0.324462737958755  1.0000
  C   C8        1.0  0.38504325291459685  0.4561025797892939  0.28309191378796106  1.0000
  C   C9        1.0  0.36584752750510763  0.48444930697571276  0.42406285252817955  1.0000
  C   C10       1.0  0.292481510698793  0.4663886824074417  0.4717235531529762  1.0000
  C   C11       1.0  0.2373655641758097  0.419734672295357  0.3793432886501322  1.0000
  C   C12       1.0  0.16185845744050764  0.40113393847791046  0.4285587755238103  1.0000
  N   N2        1.0  0.10115609044409872  0.38618019885460075  0.46812464128343856  1.0000
  C   C13       1.0  0.2558680565681541  0.3912239654867633  0.2389749364564735  1.0000
  C   C14       1.0  0.329182040757881  0.409297044717563  0.19103027490584057  1.0000
  H   H1        1.0  0.667030376803217  0.526381766603842  0.09759896134030743  1.0000
  H   H2        1.0  0.5589140142940592  0.5875921290965507  0.9351202015956459  1.0000
  H   H3        1.0  0.4296376170365945  0.5573202220147058  0.018459210357428812  1.0000
  H   H4        1.0  0.5160532940445198  0.39818820319966175  0.43284410496208636  1.0000
  H   H5        1.0  0.4073114506510259  0.5222297015692481  0.4968161983206001  1.0000
  H   H6        1.0  0.2787219920951201  0.489129560500142  0.5804758529918697  1.0000
  H   H7        1.0  0.2136858721314877  0.35471473500043693  0.16667941219189975  1.0000
  H   H8        1.0  0.3424122549933115  0.38502324077703554  0.08261510643682768  1.0000
  C   C15       1.0  0.9065322137009751  0.008720604069565985  0.45792324891501  1.0000
  C   C16       1.0  0.9078713065068024  0.9981261473866149  0.6097853029703306  1.0000
  C   C17       1.0  0.9087225574225616  0.875531082223367  0.6866369593960082  1.0000
  C   C18       1.0  0.907830907235875  0.762861617893259  0.6094489231918792  1.0000
  C   C19       1.0  0.9065040335033597  0.7715188692992722  0.45764309903720446  1.0000
  C   C20       1.0  0.9059188894179528  0.8949063054460126  0.3827769900332494  1.0000
  C   C21       1.0  0.9100018853536046  0.8638810498867627  0.8508506913466103  1.0000
  C   C22       1.0  0.8363792228860841  0.9176502483702399  0.9119043327168135  1.0000
  C   C23       1.0  0.8463707502211615  0.9644142809548965  0.0655712908277396  1.0000
  C   C24       1.0  0.9086735744304842  0.8882525195240898  0.1520660225805106  1.0000
  C   C25       1.0  0.9855319828667408  0.9044651901137898  0.07966061147452586  1.0000
  C   C26       1.0  0.9796905585190314  0.9292998673841716  0.9138091651525411  1.0000
  H   H9        1.0  0.9036792011328013  0.2360418588618629  0.1712489918982827  1.0000
  H   H10       1.0  0.9079639336158696  0.0853472055452209  0.6686302490134561  1.0000
  H   H11       1.0  0.9081929251776953  0.6681833346450872  0.6680583647329847  1.0000
  H   H12       1.0  0.9048927748201716  0.9022854201490326  0.2656875074651026  1.0000
  H   H13       1.0  0.9057550919736741  0.4473734610345039  0.39919579558402285  1.0000
  H   H14       1.0  0.9142878434934647  0.75888394135958  0.8883471846933695  1.0000
  H   H15       1.0  0.793642889207928  0.839568609410545  0.9135089804765228  1.0000
  H   H16       1.0  0.8131703487939785  0.0004207555684918596  0.8408802842748133  1.0000
  H   H17       1.0  0.8606438986353491  0.06954599560091346  0.05842796801983796  1.0000
  H   H18       1.0  0.7925643640349243  0.9537248675595122  0.12356402886611206  1.0000
  H   H19       1.0  0.8937503969070733  0.7834284695889546  0.16156508920858548  1.0000
  H   H20       1.0  0.9124047322438957  0.9219608797104768  0.2632715611382134  1.0000
  H   H21       1.0  0.019872241404637725  0.8151051439934589  0.10727336059318915  1.0000
  H   H22       1.0  0.015710222110631333  0.9869900936578191  0.12498135359140405  1.0000
  H   H23       1.0  0.9766136024893235  0.03608476232124613  0.8866202056993957  1.0000
  H   H24       1.0  0.03146802416545791  0.8917617509262352  0.8652490247091114  1.0000
  C   C27       1.0  0.9077488050937053  0.38665502135436136  0.03457454419896999  1.0000
  C   C28       1.0  0.9692613732141417  0.4402669921300064  0.10639843296686258  1.0000
  C   C29       1.0  0.02651283035671037  0.5036637755773323  0.029608797632653117  1.0000
  C   C30       1.0  0.0224564406598724  0.513769888335851  0.8779488715158488  1.0000
  C   C31       1.0  0.9625220048213003  0.4593395094627637  0.8048669712019385  1.0000
  C   C32       1.0  0.9052874295900696  0.3935844521468219  0.8809918166622874  1.0000
  O   O1        1.0  0.08597408545805152  0.5557181911021238  0.10795712316655348  1.0000
  C   C33       1.0  0.14782729341827627  0.6228182991279421  0.04414412107665311  1.0000
  H   H25       1.0  0.7290835247318257  0.3105039530295879  0.13612244154693154  1.0000
  H   H26       1.0  0.9721201557529041  0.4356809654477716  0.22348602162836828  1.0000
  H   H27       1.0  0.06572507801783511  0.562489031886453  0.8153089344306497  1.0000
  H   H28       1.0  0.9619156645187736  0.46604566125214997  0.6877511148839028  1.0000
  H   H29       1.0  0.7861416067547904  0.337143265762339  0.5992364521163807  1.0000
  H   H30       1.0  0.12766077506659723  0.7111182798877742  0.9786443166282037  1.0000
  H   H31       1.0  0.17914971295401094  0.5577239905102718  0.975420208263365  1.0000
  H   H32       1.0  0.18627709573520224  0.6530839041633862  0.13102045440962273  1.0000
  Zn  Zn1       1.0  0.8242116753176985  0.3917893016685601  0.4534095817434012  1.0000
  Zn  Zn2       1.0  0.9888173859900592  0.3884497347268714  0.4621557583747615  1.0000
  C   C34       1.0  0.9057512101604844  0.38710055699683976  0.7210026582141744  1.0000
  C   C35       1.0  0.9072796481646485  0.39314008285962765  0.19456291826089123  1.0000
  C   C36       1.0  0.9065221975796847  0.627286860191409  0.45195294129208885  1.0000
  C   C37       1.0  0.9065086044112299  0.15295222098692185  0.4636127096062963  1.0000
  O   O2        1.0  0.9695892043730433  0.39404351422763684  0.25157560863918826  1.0000
  O   O3        1.0  0.9683735808781242  0.38366148838299896  0.6706276990256945  1.0000
  O   O4        1.0  0.9689953165267448  0.5776149951356777  0.45336810379971815  1.0000
  O   O5        1.0  0.9689674128695296  0.20009001702095697  0.46883509281969626  1.0000
  O   O6        1.0  0.8440615922663997  0.5801490205154565  0.4467302443062444  1.0000
  O   O7        1.0  0.843439856780169  0.38619707358189626  0.6639897621166795  1.0000
  O   O8        1.0  0.8446554853653657  0.39657903998003885  0.24493593904851751  1.0000
  O   O9        1.0  0.8440336935449168  0.20262553436834252  0.46219553128227187  1.0000
