data_image0
_chemical_formula_structural       NC12NC2H8C12H10C6SCNH5Zn2C4O8
_chemical_formula_sum              "N3 C37 H23 S1 Zn2 O8"
_cell_length_a       17.80743265337812
_cell_length_b       10.299137764757564
_cell_length_c       9.275272990362726
_cell_angle_alpha    85.02401214190905
_cell_angle_beta     91.20895717805207
_cell_angle_gamma    89.45463381285008

_space_group_name_H-M_alt    "P 1"
_space_group_IT_number       1

loop_
  _space_group_symop_operation_xyz
  'x, y, z'

loop_
  _atom_site_type_symbol
  _atom_site_label
  _atom_site_symmetry_multiplicity
  _atom_site_fract_x
  _atom_site_fract_y
  _atom_site_fract_z
  _atom_site_occupancy
  N   N1        1.0  0.7121898242936819  0.41931961348689994  0.4454521022352984  1.0000
  C   C1        1.0  0.661596661276975  0.44949585784994506  0.36911122210760006  1.0000
  C   C2        1.0  0.5986537234688344  0.48703288263487154  0.2741527766784575  1.0000
  C   C3        1.0  0.6107980582939416  0.5421915513396849  0.1334478341776506  1.0000
  C   C4        1.0  0.5497544796166995  0.5782034134782412  0.04115207343360594  1.0000
  C   C5        1.0  0.476414436276544  0.5593260007517316  0.08882795198829463  1.0000
  C   C6        1.0  0.4632917994283506  0.5040443282775273  0.23005308415352843  1.0000
  C   C7        1.0  0.5251927479408424  0.46803586812884124  0.3223304978094621  1.0000
  C   C8        1.0  0.38537413534194565  0.4840270907536379  0.280907397179853  1.0000
  C   C9        1.0  0.3661849107799454  0.5100783549632986  0.4220549932093214  1.0000
  C   C10       1.0  0.2928147988836113  0.4912421557966957  0.46977592579877503  1.0000
  C   C11       1.0  0.2376882005904971  0.44609289886159975  0.37728040930420503  1.0000
  C   C12       1.0  0.16217687634417394  0.42669128878963747  0.42655809213001206  1.0000
  N   N2        1.0  0.1014711187523843  0.4110936997529955  0.4661739591570344  1.0000
  C   C13       1.0  0.256184155012232  0.4198678480854108  0.23673616017118881  1.0000
  C   C14       1.0  0.3295022370304663  0.43872112446966494  0.1887309095377725  1.0000
  H   H1        1.0  0.6673771944161743  0.5573247735261724  0.09518002529444747  1.0000
  H   H2        1.0  0.5592747105028326  0.6211791321114448  0.9324959370295081  1.0000
  H   H3        1.0  0.4299914505288921  0.5895510398267734  0.015940242822775952  1.0000
  H   H4        1.0  0.5163710438404837  0.42367584277084336  0.4308488614212811  1.0000
  H   H5        1.0  0.40765745902398187  0.5466736744838074  0.49489908578439645  1.0000
  H   H6        1.0  0.27906049404188304  0.5122121789405447  0.5786644922627586  1.0000
  H   H7        1.0  0.213993635001007  0.3845362167088775  0.16435044125474874  1.0000
  H   H8        1.0  0.3427268886636622  0.41621271459780185  0.08017992622441161  1.0000
  C   C15       1.0  0.9067613136716515  0.03380694968325826  0.45596665584998086  1.0000
  C   C16       1.0  0.9071689637649974  0.044888432910549225  0.30402577161714084  1.0000
  C   C17       1.0  0.9074503585483039  0.9333751426237685  0.2268340358931238  1.0000
  C   C18       1.0  0.9073185481736078  0.8096333126790223  0.30363687308874443  1.0000
  C   C19       1.0  0.9069067744229006  0.7965961395289918  0.4556722425871693  1.0000
  C   C20       1.0  0.9066319515147437  0.9092080116101103  0.5309012075232391  1.0000
  C   C21       1.0  0.9078807224986071  0.9461431893932769  0.06609554457935074  1.0000
  C   C22       1.0  0.9534083989457312  0.8634984902005747  0.9908811050992292  1.0000
  C   C23       1.0  0.9537201420760529  0.8757693206029499  0.8395742045098333  1.0000
  C   C24       1.0  0.9086976080574504  0.9703218131737458  0.7617813499484094  1.0000
  C   C25       1.0  0.8632694030164925  0.05286524765751133  0.8351373520834402  1.0000
  C   C26       1.0  0.862768787824568  0.041093297198201206  0.9864351740345767  1.0000
  H   H9        1.0  0.9065661702171866  0.35702102551898784  0.5144111268321361  1.0000
  H   H10       1.0  0.9083080602001383  0.1404686573002718  0.2454109079125928  1.0000
  H   H11       1.0  0.9064992334620636  0.7233615900865303  0.2446438607318322  1.0000
  H   H12       1.0  0.9063154652865  0.899945123261602  0.6480965886206642  1.0000
  H   H13       1.0  0.9056519457725947  0.5647076856850474  0.7426056030278672  1.0000
  H   H14       1.0  0.9894495579708633  0.7906147121815278  0.04905314480579448  1.0000
  H   H15       1.0  0.9890589205107037  0.81209279940886  0.782610451586625  1.0000
  H   H16       1.0  0.9090120777642678  0.9796272790220519  0.6446633453919359  1.0000
  H   H17       1.0  0.8282458107383922  0.12586800620767757  0.7747206620133302  1.0000
  H   H18       1.0  0.826425130044641  0.10501723290378284  0.041047988681619296  1.0000
  C   C27       1.0  0.9080637938643461  0.4186265484350231  0.032078955377285334  1.0000
  C   C28       1.0  0.8508412690466118  0.4868942098538165  0.09676002664937755  1.0000
  C   C29       1.0  0.7910204193947066  0.5439454501024674  0.013907309760616604  1.0000
  C   C30       1.0  0.7873334878990005  0.5340734459203753  0.8648847869335952  1.0000
  C   C31       1.0  0.844141762173789  0.4681206459124272  0.7982516736545642  1.0000
  C   C32       1.0  0.905604313177222  0.41177652853432534  0.8795599049224458  1.0000
  S   S1        1.0  0.7098801883792206  0.6060722149202167  0.759068682098281  1.0000
  C   C33       1.0  0.7563770613503331  0.7558570899425836  0.7252399926042705  1.0000
  N   N3        1.0  0.7868795989961199  0.8540445656835305  0.7030789050237929  1.0000
  H   H19       1.0  0.02713822701724311  0.35699713169775604  0.32397783640490063  1.0000
  H   H20       1.0  0.8513910386530769  0.4935334590099243  0.2126992211134997  1.0000
  H   H21       1.0  0.7471779922230428  0.5950186242270226  0.0660398669218294  1.0000
  H   H22       1.0  0.841189669641812  0.46380086317599756  0.6819561931721938  1.0000
  H   H23       1.0  0.08417537406566677  0.3278489158636215  0.7918773943701791  1.0000
  Zn  Zn1       1.0  0.8245279754710227  0.4169422576751134  0.451440302624321  1.0000
  Zn  Zn2       1.0  0.9891329289028239  0.41346036611938164  0.46019753283756315  1.0000
  C   C34       1.0  0.906066534085359  0.4078972811109758  0.7193697834691422  1.0000
  C   C35       1.0  0.9075961676709551  0.4225069422679941  0.19226828861734901  1.0000
  C   C36       1.0  0.9068921058774179  0.6524593060558392  0.44997751998112534  1.0000
  C   C37       1.0  0.9067705391898859  0.17794335746136514  0.4616606266507586  1.0000
  O   O1        1.0  0.9699059489495095  0.4224822119897014  0.24935261761468586  1.0000
  O   O2        1.0  0.9686881047808171  0.4052783598200962  0.6689315745715532  1.0000
  O   O3        1.0  0.9693539180080113  0.602765293557058  0.4513953704881173  1.0000
  O   O4        1.0  0.9692400798695572  0.22499528960634652  0.46688871051291336  1.0000
  O   O5        1.0  0.8444207683327198  0.6054073353778224  0.4447491219529669  1.0000
  O   O6        1.0  0.8437549556229659  0.40792196269229963  0.6622852484950066  1.0000
  O   O7        1.0  0.8449728048678138  0.4251257836238904  0.24270455667988822  1.0000
  O   O8        1.0  0.8443069354690498  0.22763885107660276  0.4602407577673209  1.0000
