data_image0
_chemical_formula_structural       NC12NC2H8C9H10C12H10Zn2C4O8
_chemical_formula_sum              "N2 C39 H28 Zn2 O8"
_cell_length_a       17.80743265337812
_cell_length_b       10.297183801781406
_cell_length_c       10.299141136925906
_cell_angle_alpha    85.51738089165387
_cell_angle_beta     91.556080336852
_cell_angle_gamma    89.4353606467078

_space_group_name_H-M_alt    "P 1"
_space_group_IT_number       1

loop_
  _space_group_symop_operation_xyz
  'x, y, z'

loop_
  _atom_site_type_symbol
  _atom_site_label
  _atom_site_symmetry_multiplicity
  _atom_site_fract_x
  _atom_site_fract_y
  _atom_site_fract_z
  _atom_site_occupancy
  N   N1        1.0  0.7070886193726739  0.40745258973427734  0.6006244589006744  1.0000
  C   C1        1.0  0.6562527126834004  0.43703806454359206  0.5319085673481985  1.0000
  C   C2        1.0  0.5930078319925285  0.4738402466860667  0.44643464771693475  1.0000
  C   C3        1.0  0.604704852877109  0.5279099667183038  0.3197834836356517  1.0000
  C   C4        1.0  0.543367890824955  0.5632074958964677  0.23670635464537604  1.0000
  C   C5        1.0  0.470179450363686  0.5446990200166377  0.2796203319189967  1.0000
  C   C6        1.0  0.45750576528545817  0.4905103384695553  0.4067397187305939  1.0000
  C   C7        1.0  0.5197000395906226  0.4552160685213644  0.4898003336194019  1.0000
  C   C8        1.0  0.37974978774905144  0.4708866579427695  0.45251465181393513  1.0000
  C   C9        1.0  0.36099329183146867  0.4980467749047486  0.5795544341137535  1.0000
  C   C10       1.0  0.2877749144754101  0.47957987318953976  0.6225089582651548  1.0000
  C   C11       1.0  0.23237026199400002  0.43369828822092593  0.5392618305289643  1.0000
  C   C12       1.0  0.1570156125244331  0.4146780327402193  0.5836176094214565  1.0000
  N   N2        1.0  0.0964358106807559  0.39938702655446057  0.6192766042826872  1.0000
  C   C13       1.0  0.2504353935385035  0.40636906683855933  0.41276512454209624  1.0000
  C   C14       1.0  0.3236008556897707  0.42485082625733406  0.3695546917651533  1.0000
  H   H1        1.0  0.6611623062568682  0.5427470519708397  0.2853378935181303  1.0000
  H   H2        1.0  0.5525426190565866  0.6053423761975201  0.1389028775182941  1.0000
  H   H3        1.0  0.42352442328922657  0.574360298413902  0.21401253519766406  1.0000
  H   H4        1.0  0.5112236827935426  0.41169552401353204  0.5874799724629212  1.0000
  H   H5        1.0  0.40268461534041683  0.5352190436684741  0.6451149079287872  1.0000
  H   H6        1.0  0.274354267425133  0.5014054994881865  0.7205139211555369  1.0000
  H   H7        1.0  0.20802727183842304  0.370464325931364  0.3476170672669303  1.0000
  H   H8        1.0  0.33649319903969643  0.40148914117363765  0.27185376351788526  1.0000
  C   C15       1.0  0.9017684819696963  0.0219440776698292  0.6101348380998919  1.0000
  C   C16       1.0  0.8995477595259085  0.03188979128090885  0.47335901957801285  1.0000
  C   C17       1.0  0.898409844702873  0.920368787414796  0.40328475967623656  1.0000
  C   C18       1.0  0.8995388396856717  0.7967190372044983  0.47282888178059035  1.0000
  C   C19       1.0  0.9017631545914921  0.7848854183369505  0.6097777392637276  1.0000
  C   C20       1.0  0.9028627426766359  0.8979746421388474  0.677536712412828  1.0000
  C   C21       1.0  0.8960077687086251  0.9405579780818636  0.25535204403974876  1.0000
  C   C22       1.0  0.8520008011436644  0.8427737073049716  0.1809449141940649  1.0000
  C   C23       1.0  0.9375901082322307  0.8413100906843249  0.18091931382109094  1.0000
  H   H9        1.0  0.9026313311939778  0.345649981416561  0.6628392898284359  1.0000
  H   H10       1.0  0.8986905959046504  0.12715174752940328  0.420556015049141  1.0000
  H   H11       1.0  0.8987036566989333  0.7091515440225351  0.4214921191556351  1.0000
  H   H12       1.0  0.9045757001228424  0.8895738801700378  0.7830621105574536  1.0000
  H   H13       1.0  0.9059542793284212  0.5553188011763647  0.8684350912796441  1.0000
  H   H14       1.0  0.8952363889891487  0.04130333250624885  0.2078039017019806  1.0000
  H   H15       1.0  0.8269444626178213  0.7596380732954898  0.23884979688674823  1.0000
  H   H16       1.0  0.8254755875888588  0.884222872581661  0.08778424511303684  1.0000
  H   H17       1.0  0.9645246777516792  0.7572861876878161  0.2388093236728508  1.0000
  H   H18       1.0  0.9610880777827316  0.8819014694833724  0.08774248410588203  1.0000
  C   C24       1.0  0.9016804179321215  0.4035273810371802  0.22855915985797437  1.0000
  C   C25       1.0  0.9801533954447228  0.4158922327782686  0.23049669996720246  1.0000
  C   C26       1.0  0.020030244633890915  0.42204597643218844  0.11434965787674645  1.0000
  C   C27       1.0  0.9803734009952845  0.4156680031076445  0.9952416377154636  1.0000
  C   C28       1.0  0.9018512280600963  0.40330210622993223  0.9913534747370849  1.0000
  C   C29       1.0  0.8629882314901879  0.39730579600267046  0.10848123634305962  1.0000
  C   C30       1.0  0.10304675921407935  0.4351283819072784  0.11744414322087282  1.0000
  C   C31       1.0  0.1477579461574654  0.36316628611400836  0.03739592030526184  1.0000
  C   C32       1.0  0.22589131909566396  0.37564182419120673  0.04054617678503347  1.0000
  C   C33       1.0  0.26021607656853885  0.45989249645939667  0.12330890286125507  1.0000
  C   C34       1.0  0.21647688788374198  0.5318430737215696  0.20315900556577815  1.0000
  C   C35       1.0  0.13832382594952275  0.5196936385600535  0.20047746994662874  1.0000
  H   H19       1.0  0.8714906372957314  0.39883726206726244  0.5552842626445313  1.0000
  H   H20       1.0  0.010553292952252047  0.41897083101893506  0.3227036947620463  1.0000
  H   H21       1.0  0.010715080942209632  0.4221528828979624  0.9052660287248186  1.0000
  H   H22       1.0  0.8024600315474247  0.38777211667204203  0.1062708418705558  1.0000
  H   H23       1.0  0.7535959062097303  0.38078721506030777  0.7766567489250327  1.0000
  H   H24       1.0  0.12239775062546299  0.2960751814150544  0.9737012682901964  1.0000
  H   H25       1.0  0.2598644411269131  0.3196625077026296  0.9789709329548728  1.0000
  H   H26       1.0  0.3207040602569651  0.4694230203817187  0.12556616544144084  1.0000
  H   H27       1.0  0.24312737014531138  0.5973741473546854  0.2669963982371979  1.0000
  H   H28       1.0  0.10543405943652862  0.5776062111530937  0.2619995733716254  1.0000
  Zn  Zn1       1.0  0.8194458134613343  0.40512157196452314  0.6060145542591509  1.0000
  Zn  Zn2       1.0  0.9840786165442803  0.4017074447713025  0.6138971077186495  1.0000
  C   C36       1.0  0.9018172821020228  0.3981696000512005  0.8471713319885157  1.0000
  C   C37       1.0  0.9017089457057504  0.40866101844305436  0.37274054277528545  1.0000
  C   C38       1.0  0.9017591251573525  0.640674870206809  0.6046695196737832  1.0000
  C   C39       1.0  0.9017670464991804  0.16615418869268628  0.615242422374467  1.0000
  O   O1        1.0  0.964195810705769  0.40908260324859125  0.4241205226055702  1.0000
  O   O2        1.0  0.9642829052213534  0.3951557918172184  0.801773654429073  1.0000
  O   O3        1.0  0.9642351008316424  0.5909818814326648  0.6059516842862749  1.0000
  O   O4        1.0  0.9642435588955878  0.21325652411973595  0.6199423926723626  1.0000
  O   O5        1.0  0.8392808149289295  0.5935724937825797  0.5999692666086771  1.0000
  O   O6        1.0  0.8393286192887832  0.3977479649283826  0.7957911667702648  1.0000
  O   O7        1.0  0.8392415244738627  0.4116747315512368  0.4181364734540878  1.0000
  O   O8        1.0  0.8392892726824764  0.2158486431022799  0.6139584409001255  1.0000
