data_image0
_chemical_formula_structural       NC12NC2H8C6NO2H5C9H10Zn2C4O8
_chemical_formula_sum              "N3 C33 H23 O10 Zn2"
_cell_length_a       17.80743265337812
_cell_length_b       9.273423624067512
_cell_length_c       10.297187173949778
_cell_angle_alpha    85.50398392258131
_cell_angle_beta     91.50840816747596
_cell_angle_gamma    90.04087344610896

_space_group_name_H-M_alt    "P 1"
_space_group_IT_number       1

loop_
  _space_group_symop_operation_xyz
  'x, y, z'

loop_
  _atom_site_type_symbol
  _atom_site_label
  _atom_site_symmetry_multiplicity
  _atom_site_fract_x
  _atom_site_fract_y
  _atom_site_fract_z
  _atom_site_occupancy
  N   N1        1.0  0.7163558189929339  0.5621419691746223  0.5999232598556539  1.0000
  C   C1        1.0  0.6657336458370209  0.5949606099583791  0.5311873558146558  1.0000
  C   C2        1.0  0.602754632377425  0.6357846175001021  0.4456885425919517  1.0000
  C   C3        1.0  0.6148427819430974  0.6957626934264105  0.31900066091529333  1.0000
  C   C4        1.0  0.5537613460008395  0.7349170995014398  0.23589950881417954  1.0000
  C   C5        1.0  0.4804392310216625  0.7143859416024385  0.27882599580834033  1.0000
  C   C6        1.0  0.46737346540072666  0.6542759941038563  0.4059822064341445  1.0000
  C   C7        1.0  0.5293122414501084  0.6151251992254447  0.4890668410291228  1.0000
  C   C8        1.0  0.3894756263760774  0.6325078869536762  0.4517704399225204  1.0000
  C   C9        1.0  0.3708237572450325  0.6627255949196122  0.5788173588933594  1.0000
  C   C10       1.0  0.2974719396668721  0.6422406190260275  0.6217843830389707  1.0000
  C   C11       1.0  0.2418272621994702  0.5912556654879424  0.5385428239443331  1.0000
  C   C12       1.0  0.16633511903919132  0.5701569187097169  0.582911492702539  1.0000
  N   N2        1.0  0.105644781548265  0.5531949452790637  0.6185808501397381  1.0000
  C   C13       1.0  0.25978647289380397  0.560850443735005  0.41203911584070974  1.0000
  C   C14       1.0  0.3330855892553943  0.5813517968218973  0.3688161433143424  1.0000
  H   H1        1.0  0.6714074150717938  0.7122212153249283  0.28454503661601804  1.0000
  H   H2        1.0  0.5632404392139198  0.7816566007138523  0.1380675384532637  1.0000
  H   H3        1.0  0.4339969030704401  0.7472902155141485  0.21319857595545022  1.0000
  H   H4        1.0  0.520523119257839  0.5668470324859247  0.5867754619886696  1.0000
  H   H5        1.0  0.41271045163194686  0.7040316157405422  0.6443730682667757  1.0000
  H   H6        1.0  0.28413733664742863  0.6665213764907947  0.7197945330725306  1.0000
  H   H7        1.0  0.2171905204437237  0.5209520485688226  0.3468954159400246  1.0000
  H   H8        1.0  0.345882363824122  0.5553655807729105  0.2711106290781671  1.0000
  C   C15       1.0  0.908677406995246  0.13408733227967096  0.6095755505549552  1.0000
  C   C16       1.0  0.8978128435164945  0.21819751617210237  0.4908241092587995  1.0000
  C   C17       1.0  0.8938996464522151  0.1542303244486951  0.37168233734162404  1.0000
  C   C18       1.0  0.9010997094848228  0.0036128543906053245  0.37207828485685  1.0000
  C   C19       1.0  0.9106384696225581  0.9184377859808222  0.48908534200537  1.0000
  C   C20       1.0  0.9133303187644147  0.981238394618497  0.6089400915532917  1.0000
  N   N3        1.0  0.8833978177587557  0.2422475087098075  0.25103428896066804  1.0000
  O   O1        1.0  0.8761900295759242  0.39002096919700224  0.25076143755208014  1.0000
  O   O2        1.0  0.8804371545856247  0.18598500860825684  0.14475242548757006  1.0000
  H   H9        1.0  0.888573405745691  0.39576941422033896  0.8218013802585489  1.0000
  H   H10       1.0  0.8941550751859527  0.3347512845093914  0.4909956460247169  1.0000
  H   H11       1.0  0.8985937234007043  0.951210565881001  0.28175365726743373  1.0000
  H   H12       1.0  0.9141276392237008  0.8021268878605942  0.4859811772152356  1.0000
  H   H13       1.0  0.879772420792401  0.8510962219444266  0.9220814118980796  1.0000
  C   C21       1.0  0.9111028827992311  0.5576084170211002  0.22780947305673038  1.0000
  C   C22       1.0  0.8351964225113839  0.5989771654764939  0.2206494280048681  1.0000
  C   C23       1.0  0.7963073042986742  0.6201713527213719  0.10036472229799265  1.0000
  C   C24       1.0  0.8349021687311153  0.5991369777552513  0.985412445077932  1.0000
  C   C25       1.0  0.910904851270482  0.5577172896869145  0.9907061859424897  1.0000
  C   C26       1.0  0.9485088748882724  0.5372220740403313  0.1122696256694129  1.0000
  C   C27       1.0  0.7142089948118872  0.6649143167974745  0.10205278984764621  1.0000
  C   C28       1.0  0.6613016873154312  0.6081057226188489  0.9993040343208168  1.0000
  C   C29       1.0  0.6845125353289794  0.7667256011797181  0.98915571100249  1.0000
  H   H14       1.0  0.9403541703603447  0.5416807551830498  0.5581059655695331  1.0000
  H   H15       1.0  0.805892423972878  0.6149481321488472  0.3093076184851913  1.0000
  H   H16       1.0  0.8064112992958373  0.614661069024232  0.8914247903209085  1.0000
  H   H17       1.0  0.007072152046413427  0.5053045014548159  0.11706639705790756  1.0000
  H   H18       1.0  0.05444956724463479  0.4794687698897324  0.7934893005390671  1.0000
  H   H19       1.0  0.6878213770793051  0.67929667798864  0.19685142846149173  1.0000
  H   H20       1.0  0.686382945274116  0.5424161873569906  0.9260471007562985  1.0000
  H   H21       1.0  0.6028131098004454  0.5899301602422222  0.03163919417433281  1.0000
  H   H22       1.0  0.7236934816919668  0.7973887798603931  0.9097351721252149  1.0000
  H   H23       1.0  0.6395890088769132  0.841256823746096  0.015557173176608874  1.0000
  Zn  Zn1       1.0  0.8286961847250824  0.5595562013542426  0.6053149287661022  1.0000
  Zn  Zn2       1.0  0.9933043459479034  0.5557689486060657  0.6131997853125322  1.0000
  C   C30       1.0  0.9109090392166509  0.5519503944869348  0.8465065984157112  1.0000
  C   C31       1.0  0.9110932989354069  0.5633765341264376  0.372008327893143  1.0000
  C   C32       1.0  0.9124482973268344  0.8211081220819223  0.6038837826562595  1.0000
  C   C33       1.0  0.9095539751195821  0.29421707482768533  0.6146312115150199  1.0000
  O   O3        1.0  0.973557987261528  0.5638688313801641  0.423395047536401  1.0000
  O   O4        1.0  0.9733781306054761  0.5485825718111534  0.8011039293403535  1.0000
  O   O5        1.0  0.9746202585477075  0.7659308603755812  0.6051842475552038  1.0000
  O   O6        1.0  0.9723158032316378  0.3465205544126915  0.6193146292282925  1.0000
  O   O7        1.0  0.8496846712686716  0.7688045968415895  0.5992000821527941  1.0000
  O   O8        1.0  0.8484425528594052  0.5514580412748997  0.7951196933779705  1.0000
  O   O9        1.0  0.8486224096947441  0.5667442503547855  0.4174092498881852  1.0000
  O   O10       1.0  0.8473802255798363  0.3493959630843311  0.6133289289757875  1.0000
