data_image0
_chemical_formula_structural       NC12NC2H8C6OCH8C7N4H6Zn2C4O8
_chemical_formula_sum              "N6 C32 H22 O9 Zn2"
_cell_length_a       17.80743265337812
_cell_length_b       9.273888216677433
_cell_length_c       9.274190830515497
_cell_angle_alpha    85.35949088217379
_cell_angle_beta     91.08905223573423
_cell_angle_gamma    88.85715842325122

_space_group_name_H-M_alt    "P 1"
_space_group_IT_number       1

loop_
  _space_group_symop_operation_xyz
  'x, y, z'

loop_
  _atom_site_type_symbol
  _atom_site_label
  _atom_site_symmetry_multiplicity
  _atom_site_fract_x
  _atom_site_fract_y
  _atom_site_fract_z
  _atom_site_occupancy
  N   N1        1.0  0.7054204733297664  0.5727040650813957  0.45122806479563327  1.0000
  C   C1        1.0  0.6547316116302256  0.6060495368367278  0.3750143220249589  1.0000
  C   C2        1.0  0.5916696272716837  0.6475288554672676  0.2802140257022441  1.0000
  C   C3        1.0  0.6036403312622718  0.7084780356459626  0.13974159192935431  1.0000
  C   C4        1.0  0.5424838748671854  0.7482694749553676  0.04759767425553063  1.0000
  C   C5        1.0  0.4692037879933755  0.7274093108072384  0.09519402733646998  1.0000
  C   C6        1.0  0.45625493922506677  0.6663246521807882  0.23618611161254766  1.0000
  C   C7        1.0  0.5182687655177203  0.626536951475489  0.3283116975066429  1.0000
  C   C8        1.0  0.3784005178753795  0.6442055802743267  0.28695606737764523  1.0000
  C   C9        1.0  0.3588980175069024  0.6734323542695646  0.4281926909311575  1.0000
  C   C10       1.0  0.2855875650343518  0.6526180490417766  0.47583425673617974  1.0000
  C   C11       1.0  0.2308344326996965  0.6022882523590838  0.38316921603671417  1.0000
  C   C12       1.0  0.1553844202187973  0.5808494227663425  0.4323651372603412  1.0000
  N   N2        1.0  0.09472795324369201  0.5636140461541983  0.47191527346807494  1.0000
  C   C13       1.0  0.24964403170311164  0.5728697875225504  0.24253519079937091  1.0000
  C   C14       1.0  0.3229026687449146  0.5937024516769285  0.19460940304049612  1.0000
  H   H1        1.0  0.6601714563826271  0.7252006436129421  0.1015375400635008  1.0000
  H   H2        1.0  0.5518677430475329  0.7957588104865261  0.9391225949097719  1.0000
  H   H3        1.0  0.42268096444089276  0.7608162938367198  0.022433303008960737  1.0000
  H   H4        1.0  0.5095918690213291  0.5775101977484542  0.4366435361830938  1.0000
  H   H5        1.0  0.4000702261536524  0.7142221976001724  0.50117440279946  1.0000
  H   H6        1.0  0.2715863557300016  0.6761341688294045  0.5847949595329978  1.0000
  H   H7        1.0  0.2077457716937088  0.5334841087788651  0.17001681073382535  1.0000
  H   H8        1.0  0.3363830630630688  0.5684788332180735  0.08598015778712287  1.0000
  C   C15       1.0  0.9022893089683663  0.1446554715952837  0.4602149866123302  1.0000
  C   C16       1.0  0.8852590875193304  0.22921100230402014  0.33041499882235636  1.0000
  C   C17       1.0  0.8618157767309511  0.1658895359351591  0.20593576744784547  1.0000
  C   C18       1.0  0.8552656020969768  0.015025494172060005  0.21078581327724044  1.0000
  C   C19       1.0  0.8730929150090402  0.9292755248858524  0.33785230585786263  1.0000
  C   C20       1.0  0.897866299580283  0.9916513153881561  0.46294113367784684  1.0000
  O   O1        1.0  0.8452240059715443  0.2565724680068924  0.08040166047610708  1.0000
  C   C21       1.0  0.8206795638342052  0.2071431852091914  0.9462957328237489  1.0000
  H   H9        1.0  0.9069985124375098  0.2187639613663015  0.8155870721169411  1.0000
  H   H10       1.0  0.8884487214994382  0.34604180056086453  0.32630712821143026  1.0000
  H   H11       1.0  0.8370944945453445  0.9626609536703429  0.11648964104675019  1.0000
  H   H12       1.0  0.8691913528619204  0.812901541447755  0.33716446338654427  1.0000
  H   H13       1.0  0.9041896781974136  0.6909189274378675  0.7014655116923061  1.0000
  H   H14       1.0  0.7667082082233652  0.15016385660861986  0.9600590886153362  1.0000
  H   H15       1.0  0.8639783283267206  0.13382438680271402  0.9053255682382195  1.0000
  H   H16       1.0  0.8118601239277266  0.3015885750134695  0.8660439657905985  1.0000
  C   C22       1.0  0.9017590953033067  0.5710570373775818  0.037893561384527485  1.0000
  C   C23       1.0  0.950736557010245  0.4753662259839675  0.1206646197975314  1.0000
  C   C24       1.0  0.993768002318329  0.37237407992896165  0.05569368847802214  1.0000
  C   C25       1.0  0.9889917769716646  0.36193353308952236  0.905893464233877  1.0000
  C   C26       1.0  0.9412582673618485  0.4590867948183326  0.8217192892753666  1.0000
  C   C27       1.0  0.8983965040693422  0.5652498000248878  0.885262546509598  1.0000
  C   C28       1.0  0.03471804282039126  0.25057633686182834  0.839208319824392  1.0000
  N   N3        1.0  0.08467566168759655  0.15993554921561737  0.9126443158369781  1.0000
  N   N4        1.0  0.1127765603035884  0.07857612470809583  0.8147810730419915  1.0000
  N   N5        1.0  0.08162988533863835  0.11678774814281612  0.6862483735380374  1.0000
  N   N6        1.0  0.03276318099049491  0.22382962610429202  0.6987040667550444  1.0000
  H   H17       1.0  0.8458016995482502  0.7860600236188267  0.29980734750234417  1.0000
  H   H18       1.0  0.9544825392539796  0.47773784670971886  0.23717836868455988  1.0000
  H   H19       1.0  0.03027907828445575  0.2995220865646515  0.12349727949647815  1.0000
  H   H20       1.0  0.9386054486085407  0.45549744417084703  0.7055112111831119  1.0000
  H   H21       1.0  0.7940119654491531  0.7007801790667807  0.5904686749261963  1.0000
  H   H22       1.0  0.00010685061096582515  0.2736338626610786  0.6135809142440332  1.0000
  Zn  Zn1       1.0  0.8177661929671461  0.5700769746171781  0.45720625161799466  1.0000
  Zn  Zn2       1.0  0.9823822458429836  0.5662292921157899  0.4659488172076305  1.0000
  C   C29       1.0  0.8990604514657801  0.5606022121566028  0.7250730898239623  1.0000
  C   C30       1.0  0.9010897748823732  0.5757058312474916  0.19808222193672087  1.0000
  C   C31       1.0  0.8987213043428823  0.8315905647684081  0.45667623173022087  1.0000
  C   C32       1.0  0.901428874576136  0.304715746732924  0.4664791483915458  1.0000
  O   O2        1.0  0.9633361118525453  0.5757995417744912  0.2551607375880214  1.0000
  O   O3        1.0  0.9617538970016284  0.55758711452214  0.6746295603373709  1.0000
  O   O4        1.0  0.9614791833194973  0.7764136457740574  0.45789715857520474  1.0000
  O   O5        1.0  0.963610769737776  0.3569730228935406  0.47189302822107093  1.0000
  O   O6        1.0  0.8365376128969957  0.7793332451540746  0.45126203761356143  1.0000
  O   O7        1.0  0.836812317832904  0.5605084471195663  0.6679943680236524  1.0000
  O   O8        1.0  0.8383945398797259  0.578720836002895  0.2485238104660512  1.0000
  O   O9        1.0  0.8386691973864988  0.359894306065625  0.46525620923722544  1.0000
