data_image0
_chemical_formula_structural       NC12NC2H8C12H16C6NCOCH9Zn2C4O8
_chemical_formula_sum              "N3 C38 H33 O9 Zn2"
_cell_length_a       17.80743265337812
_cell_length_b       10.298977702784466
_cell_length_c       10.300272075376752
_cell_angle_alpha    85.52214693465714
_cell_angle_beta     91.53227337963534
_cell_angle_gamma    89.4320624770977

_space_group_name_H-M_alt    "P 1"
_space_group_IT_number       1

loop_
  _space_group_symop_operation_xyz
  'x, y, z'

loop_
  _atom_site_type_symbol
  _atom_site_label
  _atom_site_symmetry_multiplicity
  _atom_site_fract_x
  _atom_site_fract_y
  _atom_site_fract_z
  _atom_site_occupancy
  N   N1        1.0  0.7073807630967727  0.4072633871620921  0.600981274341446  1.0000
  C   C1        1.0  0.6565604315381621  0.4368468587552998  0.5322774837774009  1.0000
  C   C2        1.0  0.5933349243003434  0.4736465488586199  0.446818616468605  1.0000
  C   C3        1.0  0.6050606662110938  0.5277126614830501  0.32018969284571996  1.0000
  C   C4        1.0  0.543742549060056  0.5630078556480598  0.2371271292750603  1.0000
  C   C5        1.0  0.4705443827190846  0.544500636695056  0.28003354493999333  1.0000
  C   C6        1.0  0.45784186791714837  0.490315560971025  0.4071306201694598  1.0000
  C   C7        1.0  0.5200173011840628  0.4550236262645455  0.4901766720187448  1.0000
  C   C8        1.0  0.3800755124112786  0.47069319928166764  0.45289750381046545  1.0000
  C   C9        1.0  0.36128767548912  0.4978419279595121  0.5799261391617925  1.0000
  C   C10       1.0  0.2880595612268098  0.4793762734696394  0.6228731026590908  1.0000
  C   C11       1.0  0.23267631956708404  0.4335073288475422  0.5396294281963987  1.0000
  C   C12       1.0  0.1573116140293162  0.4144883522319682  0.5839774065214576  1.0000
  N   N2        1.0  0.0967237277995025  0.39919837417118953  0.6196301302590881  1.0000
  C   C13       1.0  0.2507726670095757  0.4061894996496236  0.4131437823957871  1.0000
  C   C14       1.0  0.3239479270363636  0.42467002195730896  0.3699409422672879  1.0000
  H   H1        1.0  0.6615259268159407  0.542548741353329  0.2857501695635405  1.0000
  H   H2        1.0  0.5529394446060288  0.6051398800087604  0.13934087905030323  1.0000
  H   H3        1.0  0.4239041823124314  0.5741597417900943  0.21443749576540028  1.0000
  H   H4        1.0  0.5115188499019857  0.4115061993890654  0.5878389084412134  1.0000
  H   H5        1.0  0.4029621048033925  0.53500405044298  0.645484035816543  1.0000
  H   H6        1.0  0.274614708975446  0.5011929533256299  0.7208695859293819  1.0000
  H   H7        1.0  0.20838130107566902  0.3702946506168052  0.34799842781840784  1.0000
  H   H8        1.0  0.33686445038297913  0.4013175512454126  0.2722482474106429  1.0000
  C   C15       1.0  0.9020703341180724  0.02182547280645819  0.6104376756806804  1.0000
  C   C16       1.0  0.9038488280094359  0.009940462794621352  0.7472802735997168  1.0000
  C   C17       1.0  0.9049224432377865  0.8866922972789022  0.8165311498972281  1.0000
  C   C18       1.0  0.9038074554496859  0.7746787919221735  0.7469771624436281  1.0000
  C   C19       1.0  0.9020413433284944  0.7846261188044189  0.6101852331773563  1.0000
  C   C20       1.0  0.9012395799581001  0.9086497817347148  0.5427235297523592  1.0000
  C   C21       1.0  0.9066769108772176  0.8736467446476734  0.9645038204493774  1.0000
  C   C22       1.0  0.8332309023899221  0.9268970973891972  0.0195191364839693  1.0000
  C   C23       1.0  0.8436670531605576  0.9723552382185798  0.15798812989396704  1.0000
  C   C24       1.0  0.9062201431736836  0.8954584277020158  0.2359283623831686  1.0000
  C   C25       1.0  0.9828690521636396  0.9122864135850159  0.170683988989342  1.0000
  C   C26       1.0  0.976547749507916  0.9385305287658933  0.021235577241516923  1.0000
  H   H9        1.0  0.8983878518017638  0.2515829412994073  0.35211606709511467  1.0000
  H   H10       1.0  0.9041117184099522  0.0966614451345742  0.8003053386236196  1.0000
  H   H11       1.0  0.9043390552689281  0.6795024342185  0.7997900148244284  1.0000
  H   H12       1.0  0.8998746760158353  0.917023945677954  0.4372144275392138  1.0000
  H   H13       1.0  0.9011232890553803  0.4609774071140853  0.5575184831083626  1.0000
  H   H14       1.0  0.9110713622149528  0.7683309836130476  0.9982918367800089  1.0000
  H   H15       1.0  0.7904992116357136  0.8488018218201409  0.02096508142096898  1.0000
  H   H16       1.0  0.8098165257173415  0.010271180791642687  0.9555195062669948  1.0000
  H   H17       1.0  0.8579195329237408  0.07754765821384546  0.15155129577573845  1.0000
  H   H18       1.0  0.790028464467946  0.9611729912342379  0.21024527196263787  1.0000
  H   H19       1.0  0.8913244504634733  0.790553652847582  0.2444879526197018  1.0000
  H   H20       1.0  0.9102730655955344  0.9282217415509956  0.3361354542329741  1.0000
  H   H21       1.0  0.017289206051383843  0.822691708941748  0.19556578285542536  1.0000
  H   H22       1.0  0.0131784234629162  0.9944261726308335  0.21152242048213055  1.0000
  H   H23       1.0  0.9733921243309172  0.045546480778742904  0.9967356594086632  1.0000
  H   H24       1.0  0.028184710150920722  0.9014050858444125  0.9774781302944899  1.0000
  C   C27       1.0  0.9020619988392267  0.40335758988235204  0.22895899136169784  1.0000
  C   C28       1.0  0.8251734516059752  0.4356747972871782  0.22182699597610256  1.0000
  C   C29       1.0  0.7866558380074806  0.45370943363178107  0.10082886120525458  1.0000
  C   C30       1.0  0.8251810563997795  0.4353785219170958  0.986693498744446  1.0000
  C   C31       1.0  0.9020497058712025  0.4030940039644313  0.9916639834461107  1.0000
  C   C32       1.0  0.9401481834654281  0.3877367247394683  0.11328386942174973  1.0000
  N   N3        1.0  0.7076714361749842  0.4847998707211616  0.09205430278665716  1.0000
  C   C33       1.0  0.6703745204555475  0.5664241637958503  0.17769317476868163  1.0000
  O   O1        1.0  0.7076619998255641  0.6351185035248539  0.251719101278423  1.0000
  C   C34       1.0  0.586628397145869  0.5777117554933915  0.17256631468007888  1.0000
  H   H25       1.0  0.9310483040194122  0.3892059298104502  0.5592290532104098  1.0000
  H   H26       1.0  0.794930202459453  0.44427692122056905  0.31051891426688716  1.0000
  H   H27       1.0  0.7948825613313313  0.4475446314305609  0.8938692071387688  1.0000
  H   H28       1.0  0.9994545494652162  0.362846513667594  0.11797316861602036  1.0000
  H   H29       1.0  0.9309279681643292  0.3889642113373648  0.6662757650108153  1.0000
  H   H30       1.0  0.6762841749591955  0.4530599102054511  0.01360478235918161  1.0000
  H   H31       1.0  0.5616858611109427  0.48116580088739136  0.15902778411786045  1.0000
  H   H32       1.0  0.5660427831140451  0.6128308157194029  0.2646139748844898  1.0000
  H   H33       1.0  0.5685755627211831  0.6475000064476168  0.089816320771954  1.0000
  Zn  Zn1       1.0  0.8197367357886011  0.4049325284286598  0.6063704190789767  1.0000
  Zn  Zn2       1.0  0.9843677528452986  0.4015186347735804  0.6142515816217806  1.0000
  C   C35       1.0  0.9020505304622229  0.397969725646937  0.847498013442139  1.0000
  C   C36       1.0  0.9020557558729324  0.4084830390077321  0.37312420023935844  1.0000
  C   C37       1.0  0.9020430433743173  0.6404424657659211  0.6050578432361731  1.0000
  C   C38       1.0  0.9020631868419581  0.166008739578148  0.6155644375080307  1.0000
  O   O2        1.0  0.9645302738829928  0.40890196542278145  0.42449822329107967  1.0000
  O   O3        1.0  0.9645271451390339  0.3949587532529031  0.8021052368970132  1.0000
  O   O4        1.0  0.9645202569844317  0.5907585743834254  0.6063330433855867  1.0000
  O   O5        1.0  0.9645371058614003  0.21310215478194405  0.6202703167396533  1.0000
  O   O6        1.0  0.8395673265920135  0.5933490095867071  0.6003516812648189  1.0000
  O   O7        1.0  0.8395742146850095  0.3975507489331951  0.7961238050172534  1.0000
  O   O8        1.0  0.8395773435058661  0.4114939163812448  0.41851523009529146  1.0000
  O   O9        1.0  0.8395841754799821  0.21569409641713322  0.6142874209104325  1.0000
