data_image0
_chemical_formula_structural       NC12NC2H8C10H6C7NC2OH7Zn2C4O8
_chemical_formula_sum              "N3 C37 H21 O9 Zn2"
_cell_length_a       17.80743265337812
_cell_length_b       10.30283237001006
_cell_length_c       10.300337369960102
_cell_angle_alpha    85.56063731963876
_cell_angle_beta     91.53453705670806
_cell_angle_gamma    89.43531271068052

_space_group_name_H-M_alt    "P 1"
_space_group_IT_number       1

loop_
  _space_group_symop_operation_xyz
  'x, y, z'

loop_
  _atom_site_type_symbol
  _atom_site_label
  _atom_site_symmetry_multiplicity
  _atom_site_fract_x
  _atom_site_fract_y
  _atom_site_fract_z
  _atom_site_occupancy
  N   N1        1.0  0.7074056991611002  0.4062183710660683  0.6014918680129788  1.0000
  C   C1        1.0  0.6565850869471613  0.43576635128041485  0.5328000723019699  1.0000
  C   C2        1.0  0.5933592306694336  0.4725218939451177  0.44735612560178084  1.0000
  C   C3        1.0  0.6050844377975395  0.5265227759563105  0.32074915777061497  1.0000
  C   C4        1.0  0.543765963395269  0.5617752498552204  0.23770094003009246  1.0000
  C   C5        1.0  0.4705679711103202  0.5432902085284423  0.28059985417821576  1.0000
  C   C6        1.0  0.4578659961498437  0.48917057217265336  0.4076749192230482  1.0000
  C   C7        1.0  0.520041786453907  0.4539213507444493  0.49070662685077093  1.0000
  C   C8        1.0  0.3800998308239105  0.4695718191096896  0.4534338405156788  1.0000
  C   C9        1.0  0.3613156297584584  0.4967533935084325  0.5804673828313278  1.0000
  C   C10       1.0  0.2880876919656121  0.47830991395501155  0.6234068572648983  1.0000
  C   C11       1.0  0.2327009983891365  0.4324306888877125  0.5401506756385954  1.0000
  C   C12       1.0  0.15733647694610942  0.41343459095117474  0.5844909368281139  1.0000
  N   N2        1.0  0.0967487387146893  0.3981630057861527  0.6201374565099798  1.0000
  C   C13       1.0  0.2507937146572883  0.40508026855719503  0.4136600494873084  1.0000
  C   C14       1.0  0.3239687935396381  0.4235385219136356  0.3704647115551496  1.0000
  H   H1        1.0  0.6615495579685626  0.5413410622220587  0.28631564940176757  1.0000
  H   H2        1.0  0.552962460466713  0.6038567489271163  0.13993177064495943  1.0000
  H   H3        1.0  0.4239275565852781  0.5729148614990072  0.2150157251398912  1.0000
  H   H4        1.0  0.5115436783461795  0.41045496126187264  0.5883513279570505  1.0000
  H   H5        1.0  0.40299281714752627  0.5339231964488524  0.6460354730301412  1.0000
  H   H6        1.0  0.27464567783925803  0.5001515832161583  0.7214074148294052  1.0000
  H   H7        1.0  0.2083996473600757  0.36917737356624314  0.348504907490667  1.0000
  H   H8        1.0  0.3368824264966341  0.4001617813535079  0.2727674244306235  1.0000
  C   C15       1.0  0.9020807853340644  0.020938059647076734  0.610820416870284  1.0000
  C   C16       1.0  0.9382369325542407  0.02849483801714725  0.4909806836135753  1.0000
  C   C17       1.0  0.9562252985941985  0.9151510019603144  0.43135855256796485  1.0000
  C   C18       1.0  0.9382370344824386  0.7931922438486716  0.4909809603979569  1.0000
  C   C19       1.0  0.9020808388780616  0.783433212378784  0.6108204459837216  1.0000
  C   C20       1.0  0.8841911309484155  0.8979017450308066  0.6701157637019972  1.0000
  C   C21       1.0  0.9932887840672943  0.9240262575506982  0.30851132953495153  1.0000
  C   C22       1.0  0.02431888534808735  0.9314568284917986  0.2056611997223805  1.0000
  C   C23       1.0  0.06065482279064738  0.9401578787654533  0.0852247780523272  1.0000
  C   C24       1.0  0.091680148295741  0.9475873258363635  0.9823902941064269  1.0000
  H   H9        1.0  0.8883891483196011  0.3453987787981947  0.6562016122705019  1.0000
  H   H10       1.0  0.9524997907593031  0.12232850981863064  0.44370628900256204  1.0000
  H   H11       1.0  0.9525000267003615  0.7061893990770131  0.4437063689665557  1.0000
  H   H12       1.0  0.8563078196883567  0.8912249667093374  0.7625346462067673  1.0000
  H   H13       1.0  0.8883889360421251  0.4524151717520103  0.6562014128002185  1.0000
  H   H14       1.0  0.11892294312296814  0.9541111214063382  0.8920930497496107  1.0000
  C   C25       1.0  0.9020791659390961  0.4021861048847406  0.22948023287285824  1.0000
  C   C26       1.0  0.9795783156865329  0.374969378515716  0.2341605370118185  1.0000
  C   C27       1.0  0.018679438744039656  0.36123733493787435  0.1194334229157108  1.0000
  C   C28       1.0  0.9795851411505847  0.3749676303870233  0.9988685724936435  1.0000
  C   C29       1.0  0.9020824517592988  0.4021851145026034  0.9921605827176521  1.0000
  C   C30       1.0  0.8637617593356157  0.41564227640494256  0.10800390246405245  1.0000
  C   C31       1.0  0.10025252873116441  0.33258741446891027  0.12610288814970216  1.0000
  N   N3        1.0  0.14207877636580069  0.317896269864578  0.020598295537687994  1.0000
  C   C32       1.0  0.21158809283736435  0.29348247402139727  0.07183258930353853  1.0000
  C   C33       1.0  0.20961219507652706  0.2941770903046015  0.20515530976978869  1.0000
  O   O1        1.0  0.14024866286737647  0.31853990299232904  0.2355762844637277  1.0000
  H   H15       1.0  0.8725566995112134  0.4125659399746542  0.5551238565952963  1.0000
  H   H16       1.0  0.009663401331032162  0.3644031244121797  0.3272472095308492  1.0000
  H   H17       1.0  0.009606418815154338  0.36442465660069434  0.9101549174330801  1.0000
  H   H18       1.0  0.8039835476977116  0.43663555382079  0.10361032170126738  1.0000
  H   H19       1.0  0.8725432890801319  0.41256604115507245  0.6621751748029499  1.0000
  H   H20       1.0  0.2605642206339889  0.2762802863589433  0.015397750820229206  1.0000
  H   H21       1.0  0.2563053946653091  0.27777731978610887  0.2740123505386063  1.0000
  Zn  Zn1       1.0  0.8197616934744885  0.40389030042020635  0.6068800684548108  1.0000
  Zn  Zn2       1.0  0.9843927419523619  0.4004804861916822  0.6147598483211518  1.0000
  C   C34       1.0  0.902080162059078  0.3970132709294685  0.8479976195121222  1.0000
  C   C35       1.0  0.9020760711343785  0.407359116566846  0.37364251076769617  1.0000
  C   C36       1.0  0.9020769430467731  0.6393054761572603  0.6056454696010873  1.0000
  C   C37       1.0  0.9020792339697941  0.16506535267595912  0.6159947272232793  1.0000
  O   O2        1.0  0.9645516574046458  0.4077955558012454  0.42501502356115206  1.0000
  O   O3        1.0  0.9645557322786675  0.39398788217022007  0.80260530349361  1.0000
  O   O4        1.0  0.9645522906765703  0.5896419195369658  0.6069041874470884  1.0000
  O   O5        1.0  0.9645550428288978  0.2121415288855466  0.6207160395515037  1.0000
  O   O6        1.0  0.8395993364174558  0.5922292588913576  0.6009238745286458  1.0000
  O   O7        1.0  0.8396027780159449  0.3965767813527217  0.7966249213348073  1.0000
  O   O8        1.0  0.839598703185137  0.4103844097424938  0.4190330801216331  1.0000
  O   O9        1.0  0.8396020886067369  0.21473037354076396  0.614734193472342  1.0000
