data_image0
_chemical_formula_structural       NC12NC2H8C9NC2H9C12H10Zn2C4O8
_chemical_formula_sum              "N3 C41 H27 Zn2 O8"
_cell_length_a       17.80743265337812
_cell_length_b       9.273595471060368
_cell_length_c       10.299141136925906
_cell_angle_alpha    85.63422962097762
_cell_angle_beta     91.556080336852
_cell_angle_gamma    88.84631592348521

_space_group_name_H-M_alt    "P 1"
_space_group_IT_number       1

loop_
  _space_group_symop_operation_xyz
  'x, y, z'

loop_
  _atom_site_type_symbol
  _atom_site_label
  _atom_site_symmetry_multiplicity
  _atom_site_fract_x
  _atom_site_fract_y
  _atom_site_fract_z
  _atom_site_occupancy
  N   N1        1.0  0.6987609354416655  0.5628307967205513  0.6030927692353669  1.0000
  C   C1        1.0  0.6477499759762217  0.5956824121176469  0.5344287630066038  1.0000
  C   C2        1.0  0.5842873423442638  0.6365474359616385  0.4490193849500861  1.0000
  C   C3        1.0  0.595664440879807  0.6965862779466403  0.32246304526979697  1.0000
  C   C4        1.0  0.5341186286904014  0.7357805400128257  0.23944781907944224  1.0000
  C   C5        1.0  0.46103970007933337  0.7152287883472024  0.28232933724031817  1.0000
  C   C6        1.0  0.44868664122741925  0.6550578518814476  0.40935369102297914  1.0000
  C   C7        1.0  0.5110897463854651  0.6158672088536674  0.4923524088277189  1.0000
  C   C8        1.0  0.37104677403830383  0.6332677805881355  0.455094209211067  1.0000
  C   C9        1.0  0.35212957581981363  0.663426286487597  0.5821816233798933  1.0000
  C   C10       1.0  0.2790204643259169  0.6429206986397045  0.6251037613289554  1.0000
  C   C11       1.0  0.2238872862377895  0.5919739353069244  0.5417761690775298  1.0000
  C   C12       1.0  0.1486451767408552  0.570853905230208  0.5860985913273085  1.0000
  N   N2        1.0  0.0881558494662192  0.5538748214910814  0.6217307696912224  1.0000
  C   C13       1.0  0.2421141206484591  0.5616276564068163  0.415231534655935  1.0000
  C   C14       1.0  0.3151702290267813  0.5821497422006221  0.37205351413792753  1.0000
  H   H1        1.0  0.6520341054719783  0.713061329351824  0.2880434755888672  1.0000
  H   H2        1.0  0.5430440512131391  0.7825669746188049  0.14171823570995934  1.0000
  H   H3        1.0  0.41420917171034805  0.7481645758028199  0.21677355878272064  1.0000
  H   H4        1.0  0.502870894062646  0.5675421372008245  0.5899557238145312  1.0000
  H   H5        1.0  0.3936009566411567  0.704702253317067  0.6478072878065486  1.0000
  H   H6        1.0  0.2654706783485192  0.6671558033857046  0.7231470007618994  1.0000
  H   H7        1.0  0.19991844186551894  0.5217591484035515  0.35002050968744025  1.0000
  H   H8        1.0  0.3282007999311496  0.5562090027551956  0.2743116154955296  1.0000
  C   C15       1.0  0.8957217935511493  0.13476339363595935  0.6119270655232447  1.0000
  C   C16       1.0  0.8873537388045789  0.21865168899141718  0.4928147076970295  1.0000
  C   C17       1.0  0.8723725163011388  0.15432502637036394  0.37711118073824257  1.0000
  C   C18       1.0  0.8653816325863491  0.00401836700025715  0.3772995595678741  1.0000
  C   C19       1.0  0.8749042351130556  0.9189363344659103  0.4956013723651691  1.0000
  C   C20       1.0  0.8912022206484496  0.9819309540264801  0.612907983952059  1.0000
  C   C21       1.0  0.8489222136722235  0.9358986182970115  0.2540028149033886  1.0000
  C   C22       1.0  0.8856559244862096  0.8063546371244532  0.2271872891712856  1.0000
  C   C23       1.0  0.869312662063288  0.7443098069365433  0.11056340976559276  1.0000
  N   N3        1.0  0.8181135374901244  0.8088296865634339  0.023429417490501203  1.0000
  C   C24       1.0  0.781649429091893  0.9340699128799541  0.046413447724067636  1.0000
  C   C25       1.0  0.7963283481859261  0.9998868797559594  0.1617325736255808  1.0000
  H   H9        1.0  0.9481148218428009  0.3971840047098627  0.8092559847070275  1.0000
  H   H10       1.0  0.8908122918288295  0.335371638736188  0.489389229633147  1.0000
  H   H11       1.0  0.8665098162707381  0.2224775728065771  0.28709824372044235  1.0000
  H   H12       1.0  0.8702716328291598  0.8025477848430709  0.4963079494403504  1.0000
  H   H13       1.0  0.9734353322034837  0.8511368371455637  0.9033142651787192  1.0000
  H   H14       1.0  0.9273158155804533  0.7546027082382972  0.2947954426809236  1.0000
  H   H15       1.0  0.8975541440686373  0.6448547315915812  0.0891770927902813  1.0000
  H   H16       1.0  0.74105306062281  0.9825306656315368  0.9752071064096706  1.0000
  H   H17       1.0  0.7661601190804017  0.09873749326629122  0.17929985634590007  1.0000
  C   C26       1.0  0.8933759588668251  0.5584722576975518  0.23102058638481204  1.0000
  C   C27       1.0  0.97177577542331  0.5722021490195066  0.232979811268051  1.0000
  C   C28       1.0  0.011616213842754242  0.5790352460400507  0.1168435612633596  1.0000
  C   C29       1.0  0.9719971077068916  0.5719531651195553  0.9977243557750639  1.0000
  C   C30       1.0  0.8935481019117354  0.5582221132812777  0.9938145061897732  1.0000
  C   C31       1.0  0.8547205846017956  0.5515638298277479  0.11093175180777659  1.0000
  C   C32       1.0  0.09455532180999615  0.5935619067039928  0.1199609897864411  1.0000
  C   C33       1.0  0.1396922975814754  0.5136554286296513  0.039786563838452915  1.0000
  C   C34       1.0  0.21775185464926072  0.5275082257006969  0.04295869920763784  1.0000
  C   C35       1.0  0.25157811364713045  0.6210598992885048  0.12586917932302288  1.0000
  C   C36       1.0  0.20741320428764598  0.700953587223226  0.20584546485937905  1.0000
  C   C37       1.0  0.12933202872224858  0.6874628937734655  0.2031426222515691  1.0000
  H   H18       1.0  0.863213928954449  0.5532643647852544  0.5577374639073647  1.0000
  H   H19       1.0  0.0021574573310489953  0.5756206145339664  0.32519220513346303  1.0000
  H   H20       1.0  0.002300417601697191  0.579153954633362  0.9077601195979126  1.0000
  H   H21       1.0  0.7942487939965434  0.5409776631798342  0.10870463771047678  1.0000
  H   H22       1.0  0.7454259972643992  0.5332216510551617  0.7790782950416153  1.0000
  H   H23       1.0  0.11472906996057008  0.43915768328867033  0.9759742512582621  1.0000
  H   H24       1.0  0.2520561978227287  0.4653489739960035  0.9812852820347837  1.0000
  H   H25       1.0  0.3120097066681189  0.6316425621812556  0.1281431559942301  1.0000
  H   H26       1.0  0.23367594910579692  0.7737190791218422  0.2697977822021327  1.0000
  H   H27       1.0  0.09609960228329761  0.7517688267944886  0.2647662894539058  1.0000
  Zn  Zn1       1.0  0.8111319218096292  0.5602424421394829  0.6084787765874033  1.0000
  Zn  Zn2       1.0  0.9757849257663901  0.5564514063629291  0.6163553425447317  1.0000
  C   C38       1.0  0.8935445242158271  0.5525229950452628  0.8496233623436631  1.0000
  C   C39       1.0  0.8933741116849888  0.5641726320445208  0.3752109723835455  1.0000
  C   C40       1.0  0.89205150029504  0.8218000615202159  0.6075468419847017  1.0000
  C   C41       1.0  0.8948670886824217  0.2948938338005984  0.6172875572918277  1.0000
  O   O1        1.0  0.9558584822315273  0.564640758447021  0.4265916915652943  1.0000
  O   O2        1.0  0.9560279795822859  0.5491764721443624  0.8042203993386821  1.0000
  O   O3        1.0  0.9548215018620078  0.7666211277474042  0.608741857858651  1.0000
  O   O4        1.0  0.9570649036898656  0.34719611448825694  0.6220701329877103  1.0000
  O   O5        1.0  0.8298518876981545  0.7694977353094219  0.6027639834497098  1.0000
  O   O6        1.0  0.8310583561537873  0.5520548127706169  0.7982424576857052  1.0000
  O   O7        1.0  0.8308888587688181  0.5675190493180411  0.4206121883410605  1.0000
  O   O8        1.0  0.8320952803010969  0.3500743950102665  0.6160907271263765  1.0000
