data_image0
_chemical_formula_structural       NC12NC2H8C9NC2H9C7F3H5Zn2C4O8
_chemical_formula_sum              "N3 C36 H22 F3 Zn2 O8"
_cell_length_a       17.80743265337812
_cell_length_b       9.273595471060368
_cell_length_c       10.299327507215196
_cell_angle_alpha    85.64250852594519
_cell_angle_beta     91.5153373633688
_cell_angle_gamma    88.84631592348521

_space_group_name_H-M_alt    "P 1"
_space_group_IT_number       1

loop_
  _space_group_symop_operation_xyz
  'x, y, z'

loop_
  _atom_site_type_symbol
  _atom_site_label
  _atom_site_symmetry_multiplicity
  _atom_site_fract_x
  _atom_site_fract_y
  _atom_site_fract_z
  _atom_site_occupancy
  N   N1        1.0  0.6993385260662811  0.5625812480522094  0.6031618989496159  1.0000
  C   C1        1.0  0.6483559576674544  0.5954205970575643  0.5345012907440181  1.0000
  C   C2        1.0  0.5849286389475632  0.6362703630547295  0.449096139400462  1.0000
  C   C3        1.0  0.596358065764953  0.6962865965476697  0.3225460627012835  1.0000
  C   C4        1.0  0.5348465785581171  0.7354660284671628  0.23953494474284098  1.0000
  C   C5        1.0  0.4617499193760324  0.714921937314362  0.2824143407963702  1.0000
  C   C6        1.0  0.44934433872866403  0.6547736929484369  0.40943240843698403  1.0000
  C   C7        1.0  0.5117131257299967  0.6155978771182304  0.49242701882677253  1.0000
  C   C8        1.0  0.3716855588344751  0.6329917929102751  0.4551706630324135  1.0000
  C   C9        1.0  0.35271581274643854  0.6631730021749067  0.5822517879384796  1.0000
  C   C10       1.0  0.27958895388613003  0.6426750820963059  0.6251718017700154  1.0000
  C   C11       1.0  0.22449022993711512  0.5917134328146063  0.5418483332087782  1.0000
  C   C12       1.0  0.14922979408679962  0.570601320659142  0.586168562044193  1.0000
  N   N2        1.0  0.0887257336847917  0.5536286023839958  0.6217989770538526  1.0000
  C   C13       1.0  0.24276938778976262  0.5613445475135073  0.4153099611890272  1.0000
  C   C14       1.0  0.3158433493363493  0.5818589198262136  0.37213407745158333  1.0000
  H   H1        1.0  0.6527419620972948  0.7127554991137686  0.288128196365403  1.0000
  H   H2        1.0  0.5438124101286848  0.7822350042993234  0.14181019778484139  1.0000
  H   H3        1.0  0.4149464968893795  0.7478460136435312  0.21686180654292087  1.0000
  H   H4        1.0  0.5034539165685656  0.5672902416821557  0.5900255036508324  1.0000
  H   H5        1.0  0.39416005878912763  0.704460692615513  0.6478742047024917  1.0000
  H   H6        1.0  0.26599862917097206  0.6669277016488022  0.7232101892693616  1.0000
  H   H7        1.0  0.20060067234111834  0.521464389971831  0.35010216336362565  1.0000
  H   H8        1.0  0.3289143343806437  0.5559007194069228  0.2743970158301232  1.0000
  C   C15       1.0  0.8962957313872345  0.13451542315894316  0.6119957580485635  1.0000
  C   C16       1.0  0.887976926998627  0.21838243984275807  0.4928892948179793  1.0000
  C   C17       1.0  0.8730435453760518  0.15403510751620164  0.377191493759653  1.0000
  C   C18       1.0  0.8660525837707312  0.003728481798785044  0.37737986326685147  1.0000
  C   C19       1.0  0.8755262710821377  0.9186675831373223  0.4956758215805168  1.0000
  C   C20       1.0  0.8917757528961922  0.9816831587843553  0.6129766279339888  1.0000
  C   C21       1.0  0.8496441453671186  0.9355867069095732  0.25408922027364245  1.0000
  C   C22       1.0  0.8863889438152123  0.8060379353124328  0.22727502158000745  1.0000
  C   C23       1.0  0.8700939028187876  0.7439722710038585  0.1106569136208937  1.0000
  N   N3        1.0  0.8189308062479959  0.8084765846924671  0.023527233405941095  1.0000
  C   C24       1.0  0.7824571944553469  0.9337209169610591  0.04651012621290729  1.0000
  C   C25       1.0  0.7970884316099549  0.9995584848717424  0.16182354523708065  1.0000
  H   H9        1.0  0.948607168481435  0.3969712857999672  0.809314911879647  1.0000
  H   H10       1.0  0.8914368963832278  0.33510177764747273  0.48946398627309873  1.0000
  H   H11       1.0  0.867218063728784  0.22217157370880813  0.28718301127432144  1.0000
  H   H12       1.0  0.8708933766440565  0.8022791597400221  0.49638236368883026  1.0000
  H   H13       1.0  0.9738887877978366  0.8509409211543746  0.9033685376241611  1.0000
  H   H14       1.0  0.9280208804148734  0.7542980841965867  0.29487982931819445  1.0000
  H   H15       1.0  0.898344227599024  0.6445133751282239  0.0892716550050412  1.0000
  H   H16       1.0  0.7418902682529016  0.9821689491487695  0.97530730873597  1.0000
  H   H17       1.0  0.7669129388167815  0.0984122366663589  0.17938995859312978  1.0000
  C   C26       1.0  0.8941073932111684  0.558156240679907  0.2311081290925039  1.0000
  C   C27       1.0  0.9668137787290464  0.6143149637788257  0.229399300928254  1.0000
  C   C28       1.0  0.002929575930809225  0.6451057682589019  0.11121759149584887  1.0000
  C   C29       1.0  0.9666256623001016  0.6141663459745359  0.9941526233863307  1.0000
  C   C30       1.0  0.8939641389781382  0.5580423937843222  0.9938642833231612  1.0000
  C   C31       1.0  0.8580119522255896  0.5309001423255129  0.11283155234297415  1.0000
  C   C32       1.0  0.08203742045802631  0.7004802439875848  0.1108223898426941  1.0000
  F   F1        1.0  0.09471236516528503  0.7844129493745764  0.21443924732220143  1.0000
  F   F2        1.0  0.13228076459512828  0.5843318448038715  0.12093359013543137  1.0000
  F   F3        1.0  0.09450605885161134  0.7843981242672109  0.9967859416661731  1.0000
  H   H18       1.0  0.7574244870159675  0.44975478270997393  0.44176058516624517  1.0000
  H   H19       1.0  0.9955195047077277  0.6339405281195973  0.3201984296221432  1.0000
  H   H20       1.0  0.9952023773537394  0.6336860888889586  0.9031688606294046  1.0000
  H   H21       1.0  0.8019730513817881  0.48761905172321374  0.11334366594443113  1.0000
  H   H22       1.0  0.8665323161995686  0.5340865505672978  0.6664850490255465  1.0000
  Zn  Zn1       1.0  0.8117072854378616  0.5599938556473918  0.6085476397605813  1.0000
  Zn  Zn2       1.0  0.9763570326066621  0.5562042269696794  0.6164238159248427  1.0000
  C   C33       1.0  0.8940201798256298  0.5523174875128394  0.8496802918279467  1.0000
  C   C34       1.0  0.8940459264545466  0.5638823737301182  0.3752913794418815  1.0000
  C   C35       1.0  0.892627249257873  0.8215513085438846  0.6076157512771718  1.0000
  C   C36       1.0  0.89543881007226  0.29464682094163486  0.6173559845387828  1.0000
  O   O1        1.0  0.9565090521961103  0.5643596789741105  0.4266695559104443  1.0000
  O   O2        1.0  0.9565224083254679  0.5489628536588942  0.8042795757107977  1.0000
  O   O3        1.0  0.9553967567118815  0.7663725882531227  0.608810708012544  1.0000
  O   O4        1.0  0.9576346475891283  0.3469499560062843  0.622138323556034  1.0000
  O   O5        1.0  0.8304296142685101  0.7692481279055723  0.6028331294348082  1.0000
  O   O6        1.0  0.8315552566452553  0.551840126363567  0.7983019298923533  1.0000
  O   O7        1.0  0.8315419011273625  0.5672369016445842  0.42069034859802157  1.0000
  O   O8        1.0  0.8326674965540638  0.3498271683451408  0.6161592136016936  1.0000
