data_image0
_chemical_formula_structural       NC12NC2H8C7F3H5C10H6Zn2C4O8
_chemical_formula_sum              "N2 C35 H19 F3 Zn2 O8"
_cell_length_a       17.80743265337812
_cell_length_b       10.29932413504667
_cell_length_c       10.302835742178797
_cell_angle_alpha    85.56724725733018
_cell_angle_beta     91.5341157365678
_cell_angle_gamma    89.4159334836852

_space_group_name_H-M_alt    "P 1"
_space_group_IT_number       1

loop_
  _space_group_symop_operation_xyz
  'x, y, z'

loop_
  _atom_site_type_symbol
  _atom_site_label
  _atom_site_symmetry_multiplicity
  _atom_site_fract_x
  _atom_site_fract_y
  _atom_site_fract_z
  _atom_site_occupancy
  N   N1        1.0  0.7071388240795489  0.4066887912790751  0.6019793158735398  1.0000
  C   C1        1.0  0.6563127718039605  0.43624660379266755  0.5333073058117057  1.0000
  C   C2        1.0  0.5930801484687914  0.47301437712883687  0.4478879701340406  1.0000
  C   C3        1.0  0.6047954180807243  0.5270332268926545  0.32131742122936235  1.0000
  C   C4        1.0  0.5434704580347511  0.5622974298433376  0.23829307475816242  1.0000
  C   C5        1.0  0.4702758693368352  0.5438062373895141  0.2811796291527855  1.0000
  C   C6        1.0  0.4575838529374625  0.4896685940204726  0.4082181491300303  1.0000
  C   C7        1.0  0.5197661283245798  0.45440764461086003  0.4912259898390634  1.0000
  C   C8        1.0  0.3798212950881565  0.47006331959577463  0.4539638991425674  1.0000
  C   C9        1.0  0.36103127844516025  0.4972541921796936  0.5809694573042405  1.0000
  C   C10       1.0  0.28780673600243567  0.4788045755118877  0.6238965665077698  1.0000
  C   C11       1.0  0.2324292990956105  0.43290983089672674  0.5406557736393587  1.0000
  C   C12       1.0  0.1570682742499246  0.41390741211272264  0.5849832713748797  1.0000
  N   N2        1.0  0.0964833470478954  0.39863074541135357  0.6206195301146988  1.0000
  C   C13       1.0  0.2505278613861056  0.40555005639663344  0.41419298206699406  1.0000
  C   C14       1.0  0.3236995431429815  0.424014451488548  0.37101007304080236  1.0000
  H   H1        1.0  0.6612578100000504  0.54185644406835  0.2868938316152361  1.0000
  H   H2        1.0  0.5526592072498199  0.6043929319113346  0.14055206904034812  1.0000
  H   H3        1.0  0.4236299866214859  0.5734407525486247  0.21561453930517693  1.0000
  H   H4        1.0  0.5112760373047895  0.4109267868468578  0.5888424118426994  1.0000
  H   H5        1.0  0.4027009744232539  0.5344365660271233  0.6465255372947254  1.0000
  H   H6        1.0  0.2743600661722596  0.5006537108715077  0.7218756273267064  1.0000
  H   H7        1.0  0.20814103792943503  0.369635016543409  0.34904988326406805  1.0000
  H   H8        1.0  0.3366181283498738  0.4006297296755499  0.27333404757893986  1.0000
  C   C15       1.0  0.901888623765278  0.021279094743197557  0.6112650780669298  1.0000
  C   C16       1.0  0.9768628502398956  0.02180130588790652  0.5720128448537654  1.0000
  C   C17       1.0  0.014228471175879553  0.9051240552938046  0.5499237152029006  1.0000
  C   C18       1.0  0.9766687419488761  0.7865483692166336  0.5721173860408655  1.0000
  C   C19       1.0  0.9017407537586881  0.7840302806503756  0.6113452984297574  1.0000
  C   C20       1.0  0.8646939217731798  0.9019802545683676  0.6301933694801498  1.0000
  C   C21       1.0  0.09555983787488831  0.9063721300089456  0.51234340925708  1.0000
  F   F1        1.0  0.11178811266833044  0.020525809940367346  0.4391340572068898  1.0000
  F   F2        1.0  0.14077032575664616  0.8968164960553907  0.6239231978093791  1.0000
  F   F3        1.0  0.11158148481804897  0.802885816635641  0.43911608864224694  1.0000
  H   H9        1.0  0.7608218784521323  0.2273504300004654  0.687587008254569  1.0000
  H   H10       1.0  0.006355481624273018  0.1131327506362052  0.5587950557370436  1.0000
  H   H11       1.0  0.006028056441912399  0.6960919906427792  0.5589748470801561  1.0000
  H   H12       1.0  0.8069071572761718  0.9007733140794365  0.6604440687616855  1.0000
  H   H13       1.0  0.8733353713330441  0.45543044871889754  0.6286321288132093  1.0000
  C   C22       1.0  0.9018146596211343  0.4026546754356657  0.23005757879465905  1.0000
  C   C23       1.0  0.8652053916908492  0.5246100949388057  0.217839824366576  1.0000
  C   C24       1.0  0.8469917944479306  0.5852850628650981  0.09465782819653179  1.0000
  C   C25       1.0  0.8652055820567008  0.5246101507835956  0.9825372803000989  1.0000
  C   C26       1.0  0.9018146953967104  0.4026547565114216  0.9925527745135203  1.0000
  C   C27       1.0  0.9199285285196145  0.34231242045864385  0.11680554921735165  1.0000
  C   C28       1.0  0.8094637368790026  0.7103010807251642  0.0832623292990422  1.0000
  C   C29       1.0  0.7780444444201544  0.8149667000698368  0.07372169788801353  1.0000
  C   C30       1.0  0.7412527735462541  0.9375291112326583  0.06254979435293428  1.0000
  C   C31       1.0  0.7098382033754874  0.04217867331710545  0.05301075596823601  1.0000
  H   H14       1.0  0.915677954392155  0.3564724726293549  0.5620064638575932  1.0000
  H   H15       1.0  0.8507637337192355  0.5727192198729545  0.3038727338776128  1.0000
  H   H16       1.0  0.8507639528764981  0.572719357470513  0.8877338667468164  1.0000
  H   H17       1.0  0.9481610476078252  0.2482618110777688  0.12537858696944082  1.0000
  H   H18       1.0  0.9156777418414301  0.35647221777907645  0.669023100235282  1.0000
  H   H19       1.0  0.6822535855472058  0.1340697124771033  0.044634707063812895  1.0000
  Zn  Zn1       1.0  0.8194952471149968  0.4043599459193017  0.6073659632390218  1.0000
  Zn  Zn2       1.0  0.9841269235730904  0.4009489969881366  0.615243471316661  1.0000
  C   C32       1.0  0.9018140217779618  0.39748092785759304  0.848424249137413  1.0000
  C   C33       1.0  0.9018099463652121  0.4078296164722175  0.3741853990386612  1.0000
  C   C34       1.0  0.9017648259619034  0.6398541848999983  0.6061564238637569  1.0000
  C   C35       1.0  0.9018590863065141  0.16545480024332382  0.6164532906767763  1.0000
  O   O1        1.0  0.9642852288826407  0.40826627069957966  0.4255454848020379  1.0000
  O   O2        1.0  0.9642903725644713  0.39445446256289207  0.8030426359016707  1.0000
  O   O3        1.0  0.9642498041029168  0.5901739503025814  0.6074096127500455  1.0000
  O   O4        1.0  0.9643257411647492  0.2125467934143146  0.6211784079228848  1.0000
  O   O5        1.0  0.8392963733426264  0.592762150658527  0.6014310239377618  1.0000
  O   O6        1.0  0.8393369414982257  0.3970442232707285  0.7970639780298923  1.0000
  O   O7        1.0  0.8393317978750444  0.41085598614888963  0.419565266023854  1.0000
  O   O8        1.0  0.8393723101558873  0.2151364995746039  0.6151982864804437  1.0000
