data_image0
_chemical_formula_structural       NC12NC2H8C7NC2OH7C6NO2H5Zn2C4O8
_chemical_formula_sum              "N4 C33 H20 O11 Zn2"
_cell_length_a       17.80743265337812
_cell_length_b       10.300333997791364
_cell_length_c       9.27342699604674
_cell_angle_alpha    85.15206658245746
_cell_angle_beta     91.97882923782456
_cell_angle_gamma    89.43519355652523

_space_group_name_H-M_alt    "P 1"
_space_group_IT_number       1

loop_
  _space_group_symop_operation_xyz
  'x, y, z'

loop_
  _atom_site_type_symbol
  _atom_site_label
  _atom_site_symmetry_multiplicity
  _atom_site_fract_x
  _atom_site_fract_y
  _atom_site_fract_z
  _atom_site_occupancy
  N   N1        1.0  0.7010530566044815  0.4166961275042649  0.44532859127972824  1.0000
  C   C1        1.0  0.6499204693768906  0.4467491414230209  0.36896670503807893  1.0000
  C   C2        1.0  0.5863065554525574  0.4841328828236018  0.27398213124281035  1.0000
  C   C3        1.0  0.5974567569722429  0.5390644889387239  0.13323829834705614  1.0000
  C   C4        1.0  0.5357611061576207  0.5749274328485037  0.0409169632368136  1.0000
  C   C5        1.0  0.4627579463437034  0.5561269836774554  0.08860594830561275  1.0000
  C   C6        1.0  0.4506331028197971  0.5010732017757233  0.22987014523347504  1.0000
  C   C7        1.0  0.5131859945580486  0.46521363078562583  0.32217312675170073  1.0000
  C   C8        1.0  0.3730747589968699  0.4811380419516069  0.28073848341877317  1.0000
  C   C9        1.0  0.35486739073970697  0.5074055440090939  0.42195585661738244  1.0000
  C   C10       1.0  0.2818344695491656  0.48864637275614964  0.46968993042974083  1.0000
  C   C11       1.0  0.2260697650201924  0.4433593938883684  0.3771380743783366  1.0000
  C   C12       1.0  0.1509066220137907  0.42403731757495344  0.42642934566608703  1.0000
  N   N2        1.0  0.09048077819196232  0.40850366821295436  0.4660561368706677  1.0000
  C   C13       1.0  0.24358811413493914  0.41691907002032624  0.23652423855445281  1.0000
  C   C14       1.0  0.3165670144981046  0.43569487305453225  0.18850573243611923  1.0000
  H   H1        1.0  0.6537654917300298  0.5541359377915882  0.09495996211404445  1.0000
  H   H2        1.0  0.5445135685370418  0.6177277536703456  0.9322309385414078  1.0000
  H   H3        1.0  0.41581966886735744  0.5862341660077581  0.015698717640086235  1.0000
  H   H4        1.0  0.5051313577967486  0.42102898484190376  0.4307207968653197  1.0000
  H   H5        1.0  0.3968422778162749  0.5441091780893077  0.4948447114826442  1.0000
  H   H6        1.0  0.2688374543244834  0.5097830892349671  0.578632656523435  1.0000
  H   H7        1.0  0.2008982206662585  0.38147965913303405  0.16409442966401522  1.0000
  H   H8        1.0  0.3290370278073352  0.4130205139811489  0.07990015128806238  1.0000
  C   C15       1.0  0.8957710260880314  0.031254507615544824  0.45570187843969867  1.0000
  C   C16       1.0  0.8753397359441947  0.04186331390790943  0.3075073415116225  1.0000
  C   C17       1.0  0.8650315066575899  0.9301273532906359  0.232737680006883  1.0000
  C   C18       1.0  0.8753376244313704  0.8065718215874429  0.3074945521175272  1.0000
  C   C19       1.0  0.895770074757385  0.7939350376250108  0.4556956705668189  1.0000
  C   C20       1.0  0.9058729652401918  0.9068469466323599  0.5289726169890334  1.0000
  C   C21       1.0  0.8435275453437866  0.9430369082719303  0.07675175037009918  1.0000
  N   N3        1.0  0.8325019763379647  0.8407317980181422  0.9967703106591923  1.0000
  C   C22       1.0  0.814178585034439  0.897283271123599  0.8638525429955495  1.0000
  C   C23       1.0  0.8146991300565588  0.03045485320621233  0.8676312252306508  1.0000
  O   O1        1.0  0.8329839697650592  0.05556988477726543  0.000270188355125045  1.0000
  H   H9        1.0  0.9035479480280728  0.35464050953487214  0.5121603240053243  1.0000
  H   H10       1.0  0.8674087334981042  0.1372515363252187  0.2499779962188342  1.0000
  H   H11       1.0  0.867422946188387  0.7201546880914361  0.25008767191235504  1.0000
  H   H12       1.0  0.9216325003432004  0.897880413047774  0.6432810600175722  1.0000
  H   H13       1.0  0.9035538976536306  0.46169019350744994  0.5121839901443397  1.0000
  H   H14       1.0  0.8012681370378026  0.8445948534487885  0.7701988600853236  1.0000
  H   H15       1.0  0.8023901902582884  0.1028839218889146  0.7783433059360902  1.0000
  C   C24       1.0  0.8940371938650459  0.4153590562108245  0.031779669906673025  1.0000
  C   C25       1.0  0.937653777166277  0.5072634455865304  0.09983317700456307  1.0000
  C   C26       1.0  0.9862091567657253  0.5905411218791268  0.02090301966061725  1.0000
  C   C27       1.0  0.9909803827468875  0.581079833273817  0.8715147150600457  1.0000
  C   C28       1.0  0.9472040737821328  0.49201576432966054  0.8019691339148372  1.0000
  C   C29       1.0  0.897503863580583  0.4098304865391451  0.8796179319928976  1.0000
  N   N4        1.0  0.030890368584103323  0.6832279438055027  0.09269515363604475  1.0000
  O   O2        1.0  0.026060852477854946  0.692618102309652  0.2392529941321071  1.0000
  O   O3        1.0  0.07456863773330658  0.7568391899340683  0.023171785073804907  1.0000
  H   H16       1.0  0.7889642821369593  0.3016165038087768  0.3156719886010413  1.0000
  H   H17       1.0  0.935069581852153  0.5118250714189736  0.21580721706443784  1.0000
  H   H18       1.0  0.028107713712477  0.643626099866611  0.8078442835449398  1.0000
  H   H19       1.0  0.9509338408319038  0.48959634088091986  0.685857754606908  1.0000
  H   H20       1.0  0.7397950670239496  0.2469787557004668  0.7816084766804137  1.0000
  Zn  Zn1       1.0  0.8134335223245169  0.41432843938724595  0.4513184354921813  1.0000
  Zn  Zn2       1.0  0.9781003581376045  0.4108606867461613  0.4600780676860683  1.0000
  C   C30       1.0  0.8968469345549561  0.4057022242268733  0.7193582563254071  1.0000
  C   C31       1.0  0.8946887446411421  0.4194885016329104  0.1920384841825895  1.0000
  C   C32       1.0  0.8957428467649202  0.6498098153758847  0.449944061493585  1.0000
  C   C33       1.0  0.8957927765585827  0.175379350959455  0.4614527530017989  1.0000
  O   O4        1.0  0.9573976170634657  0.4195527217942596  0.2491470410484149  1.0000
  O   O5        1.0  0.9591163786856427  0.4030050830972174  0.6688976420617416  1.0000
  O   O6        1.0  0.9582239775717888  0.6001250580642117  0.4513437287610058  1.0000
  O   O7        1.0  0.9582899615450972  0.2224327580060177  0.4667008431210269  1.0000
  O   O8        1.0  0.8332438627242835  0.6027563693122273  0.44469565706039726  1.0000
  O   O9        1.0  0.8341362635179919  0.40563795505451306  0.6622494933769192  1.0000
  O   O10       1.0  0.8324174948491875  0.422185559814771  0.24249715675693673  1.0000
  O   O11       1.0  0.8333098397703008  0.22506558603261384  0.46005106706084664  1.0000
