data_image0
_chemical_formula_structural       NC12NC2H8C7NC2OH7C12H16Zn2C4O8
_chemical_formula_sum              "N3 C39 H31 O9 Zn2"
_cell_length_a       17.80743265337812
_cell_length_b       10.300333997791364
_cell_length_c       10.298981074953016
_cell_angle_alpha    85.56435405006111
_cell_angle_beta     91.51542336112495
_cell_angle_gamma    89.43519355652523

_space_group_name_H-M_alt    "P 1"
_space_group_IT_number       1

loop_
  _space_group_symop_operation_xyz
  'x, y, z'

loop_
  _atom_site_type_symbol
  _atom_site_label
  _atom_site_symmetry_multiplicity
  _atom_site_fract_x
  _atom_site_fract_y
  _atom_site_fract_z
  _atom_site_occupancy
  N   N1        1.0  0.7076745337627645  0.40645348680189386  0.6013180717782147  1.0000
  C   C1        1.0  0.6568671782739683  0.43600340575167995  0.5326180302826038  1.0000
  C   C2        1.0  0.5936578116914378  0.4727613603421372  0.4471638268527942  1.0000
  C   C3        1.0  0.6054074531117104  0.5267657039480633  0.32054166446157906  1.0000
  C   C4        1.0  0.5441050066798444  0.5620204072615387  0.23748348105142902  1.0000
  C   C5        1.0  0.4708987354408608  0.5435341474019941  0.2803875450335882  1.0000
  C   C6        1.0  0.4581722357418975  0.4894110563234968  0.4074778602214162  1.0000
  C   C7        1.0  0.5203320012668952  0.45415960501074437  0.490519531565204  1.0000
  C   C8        1.0  0.3803972393597966  0.4698110323411002  0.45324227380706117  1.0000
  C   C9        1.0  0.36158841435380384  0.497008916733074  0.580290463370432  1.0000
  C   C10       1.0  0.2883521897014201  0.47856423184977537  0.6232350920728456  1.0000
  C   C11       1.0  0.23298167136340892  0.4326674936447128  0.5399695172662431  1.0000
  C   C12       1.0  0.15760859265927463  0.4136701629841293  0.5843151005081739  1.0000
  N   N2        1.0  0.0970139749786453  0.3983975867866716  0.6199658987542729  1.0000
  C   C13       1.0  0.251098906710207  0.405300763727104  0.4134643085632008  1.0000
  C   C14       1.0  0.324282321956488  0.42376020646647494  0.370263786349182  1.0000
  H   H1        1.0  0.6618792185444053  0.5415849636614605  0.2861040226350129  1.0000
  H   H2        1.0  0.5533203720405054  0.6041046720125738  0.13970257523489815  1.0000
  H   H3        1.0  0.4242709760327174  0.5731609950685708  0.21479553285880382  1.0000
  H   H4        1.0  0.5118150507882331  0.4106901036164219  0.5881759647425997  1.0000
  H   H5        1.0  0.4032528616262586  0.5341927644117401  0.6458659434988923  1.0000
  H   H6        1.0  0.2748911781825085  0.5004186956250671  0.7212469429011146  1.0000
  H   H7        1.0  0.2087174979299671  0.36938416357367854  0.34830181558148277  1.0000
  H   H8        1.0  0.33721489563107954  0.40037032130845907  0.272555252697783  1.0000
  C   C15       1.0  0.9023483225380308  0.021080209234699554  0.6106505449976511  1.0000
  C   C16       1.0  0.8825482054740792  0.03071266554899532  0.47732525227028577  1.0000
  C   C17       1.0  0.8725584265063064  0.9184841000160235  0.41005767808107274  1.0000
  C   C18       1.0  0.8825461484323672  0.7954210889681717  0.4773137461125896  1.0000
  C   C19       1.0  0.9023473976472406  0.7837606983448405  0.6106449599977852  1.0000
  C   C20       1.0  0.9121381954111343  0.8971553778140117  0.6765695921362205  1.0000
  C   C21       1.0  0.8517188224736046  0.9303659729913757  0.26972274967363785  1.0000
  N   N3        1.0  0.8410339011912578  0.8275339210666841  0.19776632615589285  1.0000
  C   C22       1.0  0.8232766179138902  0.883209692123783  0.0781849930665095  1.0000
  C   C23       1.0  0.8237810692084429  0.01640616929628158  0.08158453751370542  1.0000
  O   O1        1.0  0.8415009883429231  0.042395066067915765  0.2009150401907882  1.0000
  H   H9        1.0  0.9098847831782705  0.34483817629682156  0.6614441770572619  1.0000
  H   H10       1.0  0.8748622253803974  0.12572186741548497  0.4255681702578946  1.0000
  H   H11       1.0  0.8748759709526157  0.7086257417580079  0.4256668415331446  1.0000
  H   H12       1.0  0.927410881177192  0.8889419424755387  0.7794087854283858  1.0000
  H   H13       1.0  0.9098906320077387  0.45188801618900876  0.6614654686310091  1.0000
  H   H14       1.0  0.8107650488820952  0.8299042559464627  0.9939281442795544  1.0000
  H   H15       1.0  0.811852414218141  0.08824698243426465  0.001255409168425814  1.0000
  C   C24       1.0  0.9024200108931848  0.40239183139973567  0.22926298700873682  1.0000
  C   C25       1.0  0.9754462555809411  0.34902978600820433  0.23556039002087115  1.0000
  C   C26       1.0  0.01246712676392292  0.3223031017313511  0.12149815906547468  1.0000
  C   C27       1.0  0.9752704688793336  0.3490880755603287  0.00026193222849446585  1.0000
  C   C28       1.0  0.9022756630577262  0.4024490864387984  0.9920324743992777  1.0000
  C   C29       1.0  0.8663027350581557  0.42887599720959324  0.10708571562136271  1.0000
  C   C30       1.0  0.09136975130977798  0.2643308989344111  0.12812887527572459  1.0000
  C   C31       1.0  0.09295424820879772  0.12421411608093114  0.1953267114257098  1.0000
  C   C32       1.0  0.17008293111664297  0.08403693854289473  0.2584104224515096  1.0000
  C   C33       1.0  0.23472359934320175  0.1521131133431326  0.1863615818226152  1.0000
  C   C34       1.0  0.22892960014552566  0.3015564809263196  0.18758450141359528  1.0000
  C   C35       1.0  0.14753631156548708  0.3528273741184327  0.19436311221984637  1.0000
  H   H16       1.0  0.7644445301024975  0.5026044736091704  0.42472602275104987  1.0000
  H   H17       1.0  0.0035834874943203587  0.3276704714407035  0.3293650472137577  1.0000
  H   H18       1.0  0.003396129932872638  0.32824601490390304  0.9121166328453163  1.0000
  H   H19       1.0  0.8100000682851956  0.4700295724255641  0.10144016590404425  1.0000
  H   H20       1.0  0.8740825394066662  0.422612892245984  0.6614068851370276  1.0000
  H   H21       1.0  0.11088203759467641  0.257484007518048  0.026948646878788285  1.0000
  H   H22       1.0  0.07771518509632314  0.05524606536245247  0.12124972752709495  1.0000
  H   H23       1.0  0.050343217681415586  0.11303691010157846  0.27221821067868057  1.0000
  H   H24       1.0  0.17201701561619598  0.10948591803581986  0.36146434994711796  1.0000
  H   H25       1.0  0.17762718490586105  0.9767464361425009  0.2590331047555865  1.0000
  H   H26       1.0  0.2336710826692212  0.12476292483967244  0.08393736281709474  1.0000
  H   H27       1.0  0.28922934651832755  0.11743822503229451  0.23219336341090013  1.0000
  H   H28       1.0  0.25497759282722643  0.34641124098771847  0.09824407029550364  1.0000
  H   H29       1.0  0.2618756893990648  0.3332795144178491  0.2724852179355999  1.0000
  H   H30       1.0  0.1333992698076123  0.3578413956240256  0.2983776671236209  1.0000
  H   H31       1.0  0.14373691456139692  0.45342391123513104  0.1467510890160293  1.0000
  Zn  Zn1       1.0  0.8200294882291602  0.40412526157187956  0.6067069190972239  1.0000
  Zn  Zn2       1.0  0.9846590160270869  0.40071522001028304  0.6145876450041496  1.0000
  C   C36       1.0  0.9023012961686849  0.3972649730010889  0.8478527016338939  1.0000
  C   C37       1.0  0.9023890058107317  0.4075771098710492  0.37344207598451296  1.0000
  C   C38       1.0  0.9023446662447872  0.6395975827731337  0.605470444261659  1.0000
  C   C39       1.0  0.9023455795469157  0.16524294106201154  0.6158243999205393  1.0000
  O   O2        1.0  0.9648546480541836  0.40801757830307905  0.4248205897894384  1.0000
  O   O3        1.0  0.9647856563278426  0.39423538223697996  0.8024551025903406  1.0000
  O   O4        1.0  0.9648198357502589  0.5899220468884727  0.606729674541115  1.0000
  O   O5        1.0  0.9648204124732752  0.2123309240975344  0.6205459177707229  1.0000
  O   O6        1.0  0.8398680356029952  0.5925095586497213  0.6007486436345142  1.0000
  O   O7        1.0  0.8398338561883156  0.39682445420031387  0.796474002423813  1.0000
  O   O8        1.0  0.8399028482601251  0.41060660489493217  0.4188379281600503  1.0000
  O   O9        1.0  0.8398686126577319  0.21491994140853254  0.6145633535131403  1.0000
