data_image0
_chemical_formula_structural       NC12NC2H8C6NCSNH8C10H6Zn2C4O8
_chemical_formula_sum              "N4 C35 H22 S1 Zn2 O8"
_cell_length_a       17.80743265337812
_cell_length_b       9.27507834575679
_cell_length_c       10.302835742178797
_cell_angle_alpha    85.38210116365647
_cell_angle_beta     91.5341157365678
_cell_angle_gamma    90.00966593732542

_space_group_name_H-M_alt    "P 1"
_space_group_IT_number       1

loop_
  _space_group_symop_operation_xyz
  'x, y, z'

loop_
  _atom_site_type_symbol
  _atom_site_label
  _atom_site_symmetry_multiplicity
  _atom_site_fract_x
  _atom_site_fract_y
  _atom_site_fract_z
  _atom_site_occupancy
  N   N1        1.0  0.7155051104155332  0.5623136458468989  0.5978159682198818  1.0000
  C   C1        1.0  0.6648548533296749  0.5951414995396698  0.52905647651311  1.0000
  C   C2        1.0  0.6018409064505733  0.6359769667493509  0.44352832001892994  1.0000
  C   C3        1.0  0.6138774533538777  0.6959720322124288  0.3167978926444641  1.0000
  C   C4        1.0  0.5527622272740275  0.7351375859733791  0.23366917544284838  1.0000
  C   C5        1.0  0.47945766214655483  0.7146006751245189  0.276610457836439  1.0000
  C   C6        1.0  0.4664436619304424  0.6544736736769992  0.4038092078744422  1.0000
  C   C7        1.0  0.5284162227018833  0.6153117334030143  0.4869214096844525  1.0000
  C   C8        1.0  0.38856450164529616  0.6326994276929756  0.4496129832112592  1.0000
  C   C9        1.0  0.36993620280880585  0.6628984820564601  0.576538065111037  1.0000
  C   C10       1.0  0.296601931208652  0.6424077466077556  0.6195197792625409  1.0000
  C   C11       1.0  0.24095153515325923  0.5914355726418801  0.5364148201183292  1.0000
  C   C12       1.0  0.16547749335769163  0.5703308774495963  0.5807985589187885  1.0000
  N   N2        1.0  0.1048017081288724  0.5533641219038286  0.6164800316923444  1.0000
  C   C13       1.0  0.2588873750925315  0.5610489303982018  0.41003300470336024  1.0000
  C   C14       1.0  0.3321688739015639  0.5815560792382635  0.36679544698979805  1.0000
  H   H1        1.0  0.6704280064074085  0.7124351721851896  0.2823304310617609  1.0000
  H   H2        1.0  0.5622013396297858  0.7818901994279925  0.13580358054024044  1.0000
  H   H3        1.0  0.43298803081017867  0.7475137172331696  0.21095765932866328  1.0000
  H   H4        1.0  0.5196675291337234  0.5670204995217372  0.5846665210814161  1.0000
  H   H5        1.0  0.41182704108090784  0.7041944178789104  0.6419840972004687  1.0000
  H   H6        1.0  0.2832852091848035  0.6666740964456981  0.7174341736485055  1.0000
  H   H7        1.0  0.2162869468150624  0.52116053631865  0.34499620289933786  1.0000
  H   H8        1.0  0.34494837839651193  0.5555842578807042  0.26918863280429983  1.0000
  C   C15       1.0  0.9079626846297335  0.13426528726702602  0.6082424195022282  1.0000
  C   C16       1.0  0.8832972476704342  0.21758763713415452  0.4952025471789314  1.0000
  C   C17       1.0  0.8661153941966794  0.15288272774160006  0.3805130959074223  1.0000
  C   C18       1.0  0.8740288464353715  0.0031270935896188234  0.3756364711228237  1.0000
  C   C19       1.0  0.895979888592552  0.9183786663415822  0.4889060267229195  1.0000
  C   C20       1.0  0.9123512571204989  0.9814012635909268  0.6060651103018477  1.0000
  N   N3        1.0  0.8556116129233838  0.9341183628307704  0.2589154571086849  1.0000
  C   C21       1.0  0.8653112005490852  0.0004214607785515412  0.1296929428949387  1.0000
  S   S1        1.0  0.8162350683926513  0.9416303742803362  0.008172622270040009  1.0000
  N   N4        1.0  0.9230560240694192  0.10507928775614928  0.10336408075070214  1.0000
  H   H9        1.0  0.9127418670650786  0.3962884280883361  0.8230005910825484  1.0000
  H   H10       1.0  0.87861188615611  0.3340846904343493  0.49469212433419973  1.0000
  H   H11       1.0  0.8464255747085702  0.22002214647770235  0.29563807549768506  1.0000
  H   H12       1.0  0.8990949553788237  0.8020234222466892  0.485747423428452  1.0000
  H   H13       1.0  0.9781521214719213  0.6839250356721098  0.7913950622813393  1.0000
  H   H14       1.0  0.8344242591664737  0.8287807838660777  0.2686131804540921  1.0000
  H   H15       1.0  0.961730419571568  0.13024094733881175  0.17598302405684763  1.0000
  H   H16       1.0  0.9296398547804073  0.15319703997553247  0.009197948457506211  1.0000
  C   C22       1.0  0.910156953039518  0.5578332275268278  0.2259061708300314  1.0000
  C   C23       1.0  0.874273015378525  0.6932808242205435  0.2133274674750878  1.0000
  C   C24       1.0  0.8564202827122245  0.7606683877955513  0.08996589286031709  1.0000
  C   C25       1.0  0.8742732060765138  0.6932808862435569  0.9780249232433285  1.0000
  C   C26       1.0  0.9101569892972928  0.5578333175721601  0.9884013663089339  1.0000
  C   C27       1.0  0.9279119361727697  0.49081518561433524  0.11283273497383184  1.0000
  C   C28       1.0  0.8196357583316505  0.8995151830946206  0.0782003866464589  1.0000
  C   C29       1.0  0.7888389649972708  0.015760173718675663  0.06834997857166569  1.0000
  C   C30       1.0  0.7527762344776079  0.15188191479934776  0.0568153296090943  1.0000
  C   C31       1.0  0.7219840679307  0.2681090717156773  0.04696656208497085  1.0000
  H   H17       1.0  0.9237455790034087  0.5065417932828953  0.5579917404012142  1.0000
  H   H18       1.0  0.8601174865899035  0.7467123599236407  0.2992179894064011  1.0000
  H   H19       1.0  0.860117706565528  0.7467125127438983  0.8830791218683607  1.0000
  H   H20       1.0  0.9555850889441146  0.38635956519075143  0.12168413236475462  1.0000
  H   H21       1.0  0.923745364936961  0.5065415102380091  0.6650083775331779  1.0000
  H   H22       1.0  0.6949459723681034  0.3701662042532705  0.03831854517692812  1.0000
  Zn  Zn1       1.0  0.8278476826353403  0.5597271555676009  0.6032095082206959  1.0000
  Zn  Zn2       1.0  0.9924590724631481  0.5559388463882831  0.6110971116131743  1.0000
  C   C32       1.0  0.9101255443151555  0.5520870976852439  0.8442881538062357  1.0000
  C   C33       1.0  0.9101830177628847  0.5635806828616403  0.3700186749083285  1.0000
  C   C34       1.0  0.9115178642637589  0.8212746032751601  0.6013029814283215  1.0000
  C   C35       1.0  0.908790632666258  0.29439144558925  0.6130039182653944  1.0000
  O   O1        1.0  0.9726608972828051  0.5640656450381745  0.42137746831524114  1.0000
  O   O2        1.0  0.9725838951891056  0.5487258083525168  0.7989154979370852  1.0000
  O   O3        1.0  0.9737073690417528  0.7660981428372795  0.6027032078750332  1.0000
  O   O4        1.0  0.9715373673128892  0.3466933221644304  0.6175896583155736  1.0000
  O   O5        1.0  0.8487693316118188  0.7689726810857873  0.5967169588198116  1.0000
  O   O6        1.0  0.8476458667334142  0.5516020795778336  0.7929291752042276  1.0000
  O   O7        1.0  0.847722868616588  0.5669418659979208  0.4153895848099287  1.0000
  O   O8        1.0  0.8465993385901601  0.34956953280749303  0.6116018721734959  1.0000
