data_image0
_chemical_formula_structural       NC12NC2H8C10H6C9H10Zn2C4O8
_chemical_formula_sum              "N2 C37 H24 Zn2 O8"
_cell_length_a       17.80743265337812
_cell_length_b       10.30283237001006
_cell_length_c       10.297187173949778
_cell_angle_alpha    85.5677345914692
_cell_angle_beta     91.50840816747596
_cell_angle_gamma    89.43531271068052

_space_group_name_H-M_alt    "P 1"
_space_group_IT_number       1

loop_
  _space_group_symop_operation_xyz
  'x, y, z'

loop_
  _atom_site_type_symbol
  _atom_site_label
  _atom_site_symmetry_multiplicity
  _atom_site_fract_x
  _atom_site_fract_y
  _atom_site_fract_z
  _atom_site_occupancy
  N   N1        1.0  0.7077759798587127  0.40603699275379923  0.6010950635339605  1.0000
  C   C1        1.0  0.6569735550585287  0.435576064044638  0.5323837776165046  1.0000
  C   C2        1.0  0.5937703216340166  0.47232052512998357  0.4469155875529913  1.0000
  C   C3        1.0  0.6055290502807313  0.5263049869591117  0.32027269700478045  1.0000
  C   C4        1.0  0.5442325644184606  0.561546689990676  0.23720091565099066  1.0000
  C   C5        1.0  0.4710232138585801  0.5430672124017615  0.2801120016849177  1.0000
  C   C6        1.0  0.4582875934421654  0.48896405693750444  0.40722312226194846  1.0000
  C   C7        1.0  0.5204413995775843  0.45372560423538033  0.4902783888184563  1.0000
  C   C8        1.0  0.3805093126019133  0.46937123853857665  0.4529950269220029  1.0000
  C   C9        1.0  0.3616914770744278  0.49656928844359616  0.5800646129884348  1.0000
  C   C10       1.0  0.2884521702675696  0.4781313778884704  0.6230162708161469  1.0000
  C   C11       1.0  0.23308752029334984  0.4322413549821287  0.5397364665701252  1.0000
  C   C12       1.0  0.1577112589523056  0.41325100771772205  0.5840893086047874  1.0000
  N   N2        1.0  0.0971140826505065  0.39798404569748613  0.6197459424206706  1.0000
  C   C13       1.0  0.25121372727651536  0.4048745295583802  0.4132099507118978  1.0000
  C   C14       1.0  0.3244002429174347  0.4233271807325294  0.37000235678839166  1.0000
  H   H1        1.0  0.6620032873551236  0.5411188074005353  0.28582941867461775  1.0000
  H   H2        1.0  0.5534549476720562  0.6036155089740338  0.139404005816278  1.0000
  H   H3        1.0  0.4244001639355  0.5726833594949814  0.21450926419122562  1.0000
  H   H4        1.0  0.5119174382429669  0.4102718786985351  0.5879507950584173  1.0000
  H   H5        1.0  0.40335130410811076  0.5337475951812181  0.6456513070918493  1.0000
  H   H6        1.0  0.2749842086947963  0.499985757247847  0.7210446344829557  1.0000
  H   H7        1.0  0.20883691099907134  0.36896318432718966  0.3480363219781508  1.0000
  H   H8        1.0  0.33733974302443415  0.39993776940657133  0.2722773496097364  1.0000
  C   C15       1.0  0.9024485961271409  0.02075789119294824  0.6104262592188989  1.0000
  C   C16       1.0  0.9386364731163598  0.028299127051634843  0.4905525233405157  1.0000
  C   C17       1.0  0.9566406252098781  0.9149475583536714  0.4309134754618129  1.0000
  C   C18       1.0  0.9386365749712738  0.7929965329190565  0.4905528002034305  1.0000
  C   C19       1.0  0.90244864966343  0.783253043928431  0.6104262883405969  1.0000
  C   C20       1.0  0.8845432422100502  0.8977292668358102  0.6697384301638727  1.0000
  C   C21       1.0  0.9937366367401376  0.9238068813788659  0.30803139647964906  1.0000
  C   C22       1.0  0.024793969480616518  0.9312241132606248  0.20515208457564515  1.0000
  C   C23       1.0  0.06116179467642824  0.9399095436359047  0.08468149098305355  1.0000
  C   C24       1.0  0.09221434749867741  0.9473256536766506  0.9818178293849869  1.0000
  H   H9        1.0  0.8887449436082219  0.3452244960192663  0.6558203308128163  1.0000
  H   H10       1.0  0.9529118480851189  0.12212666764107039  0.443264715370584  1.0000
  H   H11       1.0  0.9529120840050052  0.7059875569098237  0.44326479535726615  1.0000
  H   H12       1.0  0.8566354613544961  0.8910644747020129  0.7621835350592634  1.0000
  H   H13       1.0  0.8887447313835592  0.4522408889472118  0.6558201312859366  1.0000
  H   H14       1.0  0.11948105017875732  0.9538377382229929  0.89149496461869  1.0000
  C   C25       1.0  0.9025479435453994  0.40195647884263486  0.2289778759986163  1.0000
  C   C26       1.0  0.8264142713818489  0.43919124483701033  0.22184886273039695  1.0000
  C   C27       1.0  0.7874087471569262  0.4582674951943284  0.10158005533946368  1.0000
  C   C28       1.0  0.8261191398557216  0.43933508706150937  0.9866119996828449  1.0000
  C   C29       1.0  0.9023493140492586  0.40205447185393317  0.9918746705526194  1.0000
  C   C30       1.0  0.9400659046787153  0.38360734480517444  0.11342273628053556  1.0000
  C   C31       1.0  0.7050646934025011  0.49853929116284323  0.1033016857604292  1.0000
  C   C32       1.0  0.6524693989042949  0.4474075845077248  0.0005103166165720818  1.0000
  C   C33       1.0  0.6748090501454644  0.5901765654605484  0.9904809782309965  1.0000
  H   H15       1.0  0.9318867114886109  0.38762046957184837  0.5592624207543666  1.0000
  H   H16       1.0  0.7970225546156972  0.45356623148641906  0.3105190334518646  1.0000
  H   H17       1.0  0.7975430065914059  0.45330785460363354  0.8926359899540004  1.0000
  H   H18       1.0  0.9988044844941963  0.35487929789286254  0.11819556546038568  1.0000
  H   H19       1.0  0.04632379871639758  0.33162533312386167  0.7945990888814247  1.0000
  H   H20       1.0  0.6785980826284254  0.5114844218084338  0.19811111296076667  1.0000
  H   H21       1.0  0.6779114471473906  0.388282409947708  0.9272041076081021  1.0000
  H   H22       1.0  0.5940806480404348  0.43104830758544654  0.03283184250386206  1.0000
  H   H23       1.0  0.713821583428453  0.6177755701548704  0.9110834406085853  1.0000
  H   H24       1.0  0.6294761717185363  0.6572598767801099  0.016938348230700173  1.0000
  Zn  Zn1       1.0  0.8201305475471334  0.4037096209259705  0.606484792792122  1.0000
  Zn  Zn2       1.0  0.9847595097086536  0.4003008286587353  0.6143668084208962  1.0000
  C   C34       1.0  0.9023851758343586  0.3968638629691399  0.8476707571264397  1.0000
  C   C35       1.0  0.902506679131505  0.40714818752768167  0.37318105765101284  1.0000
  C   C36       1.0  0.9024461240021255  0.6391246365427854  0.6052498436405747  1.0000
  C   C37       1.0  0.9024456747692299  0.164885855299572  0.6156020377003071  1.0000
  O   O1        1.0  0.9649686635860658  0.4075912894760507  0.42456814657935715  1.0000
  O   O2        1.0  0.9648727645027918  0.393832587092412  0.8022655617589292  1.0000
  O   O3        1.0  0.9649211383632692  0.5894612431708222  0.6065089186277808  1.0000
  O   O4        1.0  0.964920233574235  0.21196264383571095  0.6203246896259464  1.0000
  O   O5        1.0  0.8399697675017685  0.592047806913661  0.6005269088904943  1.0000
  O   O6        1.0  0.839921393656016  0.39642071065438045  0.7962834827616365  1.0000
  O   O7        1.0  0.8400172931958815  0.41017936759427753  0.4185845058583595  1.0000
  O   O8        1.0  0.8399688631556207  0.21455071268053327  0.6143411462929309  1.0000
