data_image0
_chemical_formula_structural       NC12NC2H8C7N4H6C6NCSNH8Zn2C4O8
_chemical_formula_sum              "N8 C32 H22 S1 Zn2 O8"
_cell_length_a       17.80743265337812
_cell_length_b       9.274187458527196
_cell_length_c       9.275081717742442
_cell_angle_alpha    86.48557207337515
_cell_angle_beta     91.71745222805815
_cell_angle_gamma    89.89930755814211

_space_group_name_H-M_alt    "P 1"
_space_group_IT_number       1

loop_
  _space_group_symop_operation_xyz
  'x, y, z'

loop_
  _atom_site_type_symbol
  _atom_site_label
  _atom_site_symmetry_multiplicity
  _atom_site_fract_x
  _atom_site_fract_y
  _atom_site_fract_z
  _atom_site_occupancy
  N   N1        1.0  0.7115986799078032  0.5460296848288335  0.45786368531739163  1.0000
  C   C1        1.0  0.6607944031879638  0.57808162351765  0.3818339350483535  1.0000
  C   C2        1.0  0.5975888737642453  0.6179519491841945  0.28726250789184804  1.0000
  C   C3        1.0  0.6093419846785668  0.6765171911412753  0.14712754358225877  1.0000
  C   C4        1.0  0.5480410003331568  0.7147449505351171  0.055204381055908414  1.0000
  C   C5        1.0  0.47483265305638617  0.6946926279673118  0.10268571371631041  1.0000
  C   C6        1.0  0.4621030592729739  0.6360006874752471  0.2433393713542542  1.0000
  C   C7        1.0  0.5242613449783604  0.5977763574064185  0.33524423249940694  1.0000
  C   C8        1.0  0.3843264178848946  0.6147432647436557  0.2939870645904117  1.0000
  C   C9        1.0  0.3659045763284477  0.6463277181805844  0.43517728162310254  1.0000
  C   C10       1.0  0.2926665570018116  0.6263219934533555  0.48270393028172665  1.0000
  C   C11       1.0  0.23690773286669733  0.5744588312613614  0.38996851622348006  1.0000
  C   C12       1.0  0.1615330363373299  0.5538549392962546  0.43904594758850557  1.0000
  N   N2        1.0  0.1009371178962401  0.5372907951109018  0.4785008259962682  1.0000
  C   C13       1.0  0.2546382708803908  0.5426928833565448  0.24937967561580776  1.0000
  C   C14       1.0  0.3278230349918018  0.562712189011239  0.20156914814116722  1.0000
  H   H1        1.0  0.6658153251447141  0.6925913799982717  0.10901574637294575  1.0000
  H   H2        1.0  0.5572608715254618  0.7603931870079195  0.9469912712580948  1.0000
  H   H3        1.0  0.4282146161988507  0.726864002609859  0.030105733971071302  1.0000
  H   H4        1.0  0.5157329912725124  0.5505889651045595  0.44330926925310266  1.0000
  H   H5        1.0  0.4078798126888579  0.6883247203279368  0.5082181427389303  1.0000
  H   H6        1.0  0.2795082717618518  0.6516565872652458  0.5916319653297926  1.0000
  H   H7        1.0  0.2119529867902848  0.5021072132115254  0.17680622791314793  1.0000
  H   H8        1.0  0.3404461280840527  0.5356763993793272  0.09296671398213974  1.0000
  C   C15       1.0  0.904442361968209  0.11831744177555414  0.46545639278915707  1.0000
  C   C16       1.0  0.9431561199728289  0.1980274337582717  0.3578245554126227  1.0000
  C   C17       1.0  0.9868242509418356  0.12898436216813858  0.2603168989590017  1.0000
  C   C18       1.0  0.9931389182312531  0.9780374635382955  0.2677377198663484  1.0000
  C   C19       1.0  0.9534219173621685  0.8971311912612671  0.37324139126283296  1.0000
  C   C20       1.0  0.9081005704919234  0.9649918893933579  0.4709208065452457  1.0000
  C   C21       1.0  0.04051915067749845  0.9068851476727242  0.16382597477917993  1.0000
  N   N3        1.0  0.0764532385252572  0.977707943496566  0.05512341653794772  1.0000
  N   N4        1.0  0.11216652934556848  0.8761546976133574  0.9892545169314411  1.0000
  N   N5        1.0  0.09910145429053374  0.7479138546859748  0.054180230335573176  1.0000
  N   N6        1.0  0.0545722131124855  0.7642691416070562  0.16336779005143565  1.0000
  H   H9        1.0  0.8062840152359984  0.39145211637131205  0.6048634712147254  1.0000
  H   H10       1.0  0.9411719043742456  0.3150153570790031  0.35109951218663693  1.0000
  H   H11       1.0  0.016458514869853058  0.19439509292873858  0.17984481970674904  1.0000
  H   H12       1.0  0.9558016382825052  0.7804477050372682  0.37770681170996734  1.0000
  H   H13       1.0  0.8605030750293963  0.6717217457446873  0.6896735769592575  1.0000
  H   H14       1.0  0.035903165486998345  0.6801637655185298  0.232955406745889  1.0000
  C   C22       1.0  0.9055735409178328  0.5374464580601892  0.04493646363713366  1.0000
  C   C23       1.0  0.8385586310848359  0.5703736724052231  0.1122830325807509  1.0000
  C   C24       1.0  0.7748985184680088  0.6163315647073515  0.030846848745929023  1.0000
  C   C25       1.0  0.7769665969881028  0.6321167965132566  0.8798040443434312  1.0000
  C   C26       1.0  0.8425905760263748  0.594699343195108  0.8112480029017695  1.0000
  C   C27       1.0  0.9069694290410991  0.5458629531387464  0.8914408104024547  1.0000
  N   N7        1.0  0.7116645389981721  0.6773991533908539  0.7938296390439721  1.0000
  C   C28       1.0  0.6559894163417158  0.7756768408875976  0.8393456321908768  1.0000
  S   S1        1.0  0.5714848279797645  0.7749761399906625  0.7648831307177755  1.0000
  N   N8        1.0  0.6754519926533257  0.8849348121171172  0.9360530671120744  1.0000
  H   H15       1.0  0.009645934210201101  0.4075565927144893  0.3401140417988451  1.0000
  H   H16       1.0  0.8357294217919667  0.5632035177407484  0.22901256373909784  1.0000
  H   H17       1.0  0.7239346804992594  0.6391826312532696  0.08606903110479047  1.0000
  H   H18       1.0  0.8428194886995599  0.6017066177890991  0.6941929658462671  1.0000
  H   H19       1.0  0.03085066162170147  0.5324590492890164  0.6184674849481651  1.0000
  H   H20       1.0  0.7045410727606326  0.6372870718327082  0.6914149672891536  1.0000
  H   H21       1.0  0.731114166667371  0.9003097657631414  0.9699572195680508  1.0000
  H   H22       1.0  0.6346132660720717  0.9557760224143763  0.9690552429527082  1.0000
  Zn  Zn1       1.0  0.8239533433485957  0.543504063748828  0.4638274026626732  1.0000
  Zn  Zn2       1.0  0.9885824205388395  0.5398047736936702  0.4725487891718856  1.0000
  C   C29       1.0  0.9066790777607194  0.5385289651033356  0.7313961803245952  1.0000
  C   C30       1.0  0.905858491963632  0.5447816523173767  0.20498025995214264  1.0000
  C   C31       1.0  0.9073957765184365  0.8048954135545341  0.4641442174308077  1.0000
  C   C32       1.0  0.9051417296726216  0.27841347386134774  0.4722322855340193  1.0000
  O   O1        1.0  0.9684299737853727  0.545833259901997  0.2620021001505577  1.0000
  O   O2        1.0  0.9690572508856564  0.5346685902855655  0.6809932487653556  1.0000
  O   O3        1.0  0.9696351544630218  0.7497628998989694  0.46518536293381074  1.0000
  O   O4        1.0  0.9678520138976092  0.3307389607891391  0.47780987500395455  1.0000
  O   O5        1.0  0.844683693809996  0.752569877917239  0.45856631384685165  1.0000
  O   O6        1.0  0.8441057975860939  0.5374772995725456  0.6743741340065552  1.0000
  O   O7        1.0  0.8434785174612118  0.5486419017216331  0.2553812521911121  1.0000
  O   O8        1.0  0.8429005577040164  0.33354759337210904  0.4711891350389046  1.0000
