data_image0
_chemical_formula_structural       NC12NC2H8C7F3H5C7F3H5Zn2C4O8
_chemical_formula_sum              "N2 C32 H18 F6 Zn2 O8"
_cell_length_a       17.80743265337812
_cell_length_b       10.29932413504667
_cell_length_c       10.299327507215196
_cell_angle_alpha    85.5593343133362
_cell_angle_beta     91.5153373633688
_cell_angle_gamma    89.4159334836852

_space_group_name_H-M_alt    "P 1"
_space_group_IT_number       1

loop_
  _space_group_symop_operation_xyz
  'x, y, z'

loop_
  _atom_site_type_symbol
  _atom_site_label
  _atom_site_symmetry_multiplicity
  _atom_site_fract_x
  _atom_site_fract_y
  _atom_site_fract_z
  _atom_site_occupancy
  N   N1        1.0  0.707402681079627  0.4068768910049463  0.6015006993907202  1.0000
  C   C1        1.0  0.6565895896927936  0.4364439431431124  0.5328051792647668  1.0000
  C   C2        1.0  0.5933730880716422  0.47322320940911267  0.4473566000269231  1.0000
  C   C3        1.0  0.6051122461179249  0.5272590888820201  0.3207427193234862  1.0000
  C   C4        1.0  0.5438029557649985  0.5625344625235162  0.2376899492236888  1.0000
  C   C5        1.0  0.4706002728251916  0.5440374998051918  0.28059118595603283  1.0000
  C   C6        1.0  0.4578842796684245  0.48988276376287665  0.4076731979433059  1.0000
  C   C7        1.0  0.5200508884777286  0.45461064588325506  0.49070945663014  1.0000
  C   C8        1.0  0.3801130879437391  0.47027133437700086  0.4534346091475716  1.0000
  C   C9        1.0  0.36129910076443367  0.49744511872256547  0.5804836480346995  1.0000
  C   C10       1.0  0.2880664564256605  0.47898972633372394  0.6234254534600074  1.0000
  C   C11       1.0  0.23270473006313552  0.4331061815316255  0.54015616286194  1.0000
  C   C12       1.0  0.15733533901750252  0.414097798608273  0.5844988362463619  1.0000
  N   N2        1.0  0.09674368596625531  0.39881633714916087  0.6201472951639126  1.0000
  C   C13       1.0  0.25082716045027936  0.4057634222421782  0.41365007638185536  1.0000
  C   C14       1.0  0.32400699238187  0.42423362747227067  0.37045238356006527  1.0000
  H   H1        1.0  0.6615811350120031  0.5420869376542603  0.2863073446924609  1.0000
  H   H2        1.0  0.5530101522382845  0.6046431153671705  0.13991548158580835  1.0000
  H   H3        1.0  0.4239667646105298  0.5736808365615556  0.2150036497075556  1.0000
  H   H4        1.0  0.5115423737131678  0.4111166541059812  0.5883592979022427  1.0000
  H   H5        1.0  0.4029564239423252  0.5346186721849924  0.6460621713415022  1.0000
  H   H6        1.0  0.27460129440767084  0.5008256788880461  0.721438057697873  1.0000
  H   H7        1.0  0.20845263184934382  0.36985714720850615  0.3484846756479332  1.0000
  H   H8        1.0  0.3369440125828581  0.4008620476920206  0.2727429184243173  1.0000
  C   C15       1.0  0.9021507282066252  0.021465945096049266  0.6107896405920403  1.0000
  C   C16       1.0  0.9771323629954544  0.021993437517631387  0.5715239692616743  1.0000
  C   C17       1.0  0.014502152948070002  0.9053191589533996  0.5494272773324671  1.0000
  C   C18       1.0  0.9769382349737368  0.7867404867806379  0.5716285462387569  1.0000
  C   C19       1.0  0.9020028430595555  0.7842171202098046  0.6108698884185444  1.0000
  C   C20       1.0  0.8649524537622412  0.9021645581731872  0.6297244121613588  1.0000
  C   C21       1.0  0.09584061240822472  0.9065722899923322  0.5118341056586504  1.0000
  F   F1        1.0  0.11208270445074531  0.020735820034849084  0.43859969017199907  1.0000
  F   F2        1.0  0.1410300411535823  0.8970016432940606  0.6234520938789205  1.0000
  F   F3        1.0  0.11187607999178106  0.8030958291477421  0.4385817154557654  1.0000
  H   H9        1.0  0.7610695781884792  0.22752701145364407  0.6871376998163976  1.0000
  H   H10       1.0  0.00662748905406918  0.11332666068204222  0.5583016549960691  1.0000
  H   H11       1.0  0.006300029938588025  0.6962858764981998  0.5584815078912755  1.0000
  H   H12       1.0  0.807159979865613  0.9009535475382945  0.6599854678585451  1.0000
  H   H13       1.0  0.8735941979846117  0.4556149623842299  0.6281626369990954  1.0000
  C   C22       1.0  0.9021487116869389  0.4028928161785148  0.22945163381398093  1.0000
  C   C23       1.0  0.9751449206293499  0.45345556922236474  0.22768310261274838  1.0000
  C   C24       1.0  0.011419622733256363  0.48117820529806843  0.10946865909314951  1.0000
  C   C25       1.0  0.9749560372150001  0.45332176052940376  0.9924365830682609  1.0000
  C   C26       1.0  0.9020048699138917  0.40279031362595275  0.9922079090766887  1.0000
  C   C27       1.0  0.8659126076782612  0.3783526682908107  0.11120403336160067  1.0000
  C   C28       1.0  0.09081324334835106  0.5310348577769772  0.1090145881461464  1.0000
  F   F4        1.0  0.10392134719390911  0.6066040377832502  0.21254221572267107  1.0000
  F   F5        1.0  0.14045716988925583  0.42646013633930857  0.11924926724661367  1.0000
  F   F6        1.0  0.10371496437095717  0.6065906899327083  0.9948889258273992  1.0000
  H   H14       1.0  0.764906368238903  0.3052930872944992  0.4402193328258974  1.0000
  H   H15       1.0  0.003951930040982488  0.4711255322904482  0.31846136712510087  1.0000
  H   H16       1.0  0.0036334895793403987  0.47089644681140697  0.9014320686298727  1.0000
  H   H17       1.0  0.8096503421779349  0.33938434823592156  0.11176215962877056  1.0000
  H   H18       1.0  0.8744494160387511  0.3812215649489925  0.6648541425339412  1.0000
  Zn  Zn1       1.0  0.8197580874601494  0.40454732088701695  0.6068891908907312  1.0000
  Zn  Zn2       1.0  0.9843882771479304  0.40113531205943787  0.6147693958563727  1.0000
  C   C29       1.0  0.9020313657174582  0.3976358691152697  0.8480300038005331  1.0000
  C   C30       1.0  0.9021167963053908  0.408048365224815  0.3736287966400955  1.0000
  C   C31       1.0  0.9020278945908252  0.6400417226078132  0.6056792374261126  1.0000
  C   C32       1.0  0.902120211544742  0.16564095253685496  0.615979629401695  1.0000
  O   O1        1.0  0.9645823853194923  0.4084781090980154  0.42500646567951694  1.0000
  O   O2        1.0  0.9645162816535846  0.3946155097881747  0.8026328540363559  1.0000
  O   O3        1.0  0.9645126362098303  0.590361319397378  0.6069328553452933  1.0000
  O   O4        1.0  0.9645859746026798  0.21273230995669468  0.6207063643055561  1.0000
  O   O5        1.0  0.8395603338251972  0.5929503241555258  0.6009522197455894  1.0000
  O   O6        1.0  0.8395639789760304  0.39720607490750504  0.7966521493535141  1.0000
  O   O7        1.0  0.8396300829951869  0.4110686291688346  0.4190241995558892  1.0000
  O   O8        1.0  0.8396336722587382  0.21532282072539677  0.6147241955509937  1.0000
