data_image0
_chemical_formula_structural       NC12NC2H8C7N4H6C6OCH8Zn2C4O8
_chemical_formula_sum              "N6 C32 H22 O9 Zn2"
_cell_length_a       17.80743265337812
_cell_length_b       9.274187458527196
_cell_length_c       9.273891588657152
_cell_angle_alpha    86.43492671572189
_cell_angle_beta     91.22048166911064
_cell_angle_gamma    89.89930755814211

_space_group_name_H-M_alt    "P 1"
_space_group_IT_number       1

loop_
  _space_group_symop_operation_xyz
  'x, y, z'

loop_
  _atom_site_type_symbol
  _atom_site_label
  _atom_site_symmetry_multiplicity
  _atom_site_fract_x
  _atom_site_fract_y
  _atom_site_fract_z
  _atom_site_occupancy
  N   N1        1.0  0.7185650813585632  0.5473505940974175  0.4579271435440957  1.0000
  C   C1        1.0  0.6681042592072548  0.5794676556945415  0.3819005218656255  1.0000
  C   C2        1.0  0.6053259439805373  0.6194189860514527  0.2873329862814846  1.0000
  C   C3        1.0  0.6177120964809846  0.6781042599223446  0.14720378846364435  1.0000
  C   C4        1.0  0.5568263631394483  0.7164107556485215  0.05528440853474059  1.0000
  C   C5        1.0  0.4834035250802608  0.6963177631789708  0.1027637873593219  1.0000
  C   C6        1.0  0.4700385465806634  0.6375053464888778  0.24341165716151592  1.0000
  C   C7        1.0  0.5317816639562999  0.5992022957636725  0.33531273646231563  1.0000
  C   C8        1.0  0.3920331107855795  0.616204541724978  0.29405726626751694  1.0000
  C   C9        1.0  0.3729734606752421  0.6476680593765702  0.4352416733852764  1.0000
  C   C10       1.0  0.2995207458570254  0.6276216259324008  0.48276636634334635  1.0000
  C   C11       1.0  0.24418084196708092  0.5758378958027932  0.3900347683063372  1.0000
  C   C12       1.0  0.1685844444857252  0.5551919668054528  0.4391101801567874  1.0000
  N   N2        1.0  0.10781029373173122  0.5385940277382313  0.4785634350137684  1.0000
  C   C13       1.0  0.2625464718944044  0.5441923685772958  0.24945171286722334  1.0000
  C   C14       1.0  0.33594721388325055  0.5642526261039333  0.20164315277462452  1.0000
  H   H1        1.0  0.674357602064341  0.6942110932516208  0.10909355953791544  1.0000
  H   H2        1.0  0.5665350730666365  0.7621516815278007  0.9470757516584936  1.0000
  H   H3        1.0  0.43711335889886443  0.7285513058458659  0.030186794248120874  1.0000
  H   H4        1.0  0.5227651404164042  0.5519223408865737  0.4433733263875854  1.0000
  H   H5        1.0  0.41461874438749957  0.6896024987339056  0.5082795289020015  1.0000
  H   H6        1.0  0.28587039229978223  0.6528629179721108  0.5916899190509883  1.0000
  H   H7        1.0  0.2201890289727793  0.5036688608616355  0.17688125152981038  1.0000
  H   H8        1.0  0.34906090443285875  0.5373098593523633  0.09304518755768854  1.0000
  C   C15       1.0  0.9113744643444692  0.11963184754793121  0.46551953857930983  1.0000
  C   C16       1.0  0.9505744352609495  0.1994340310510947  0.3578921302052387  1.0000
  C   C17       1.0  0.9946830444632431  0.1304744791640784  0.26038848614851773  1.0000
  C   C18       1.0  0.0009641891534954983  0.9795212242666185  0.2678090016923691  1.0000
  C   C19       1.0  0.9607705890872588  0.8985245833392379  0.3733083316594781  1.0000
  C   C20       1.0  0.915007988085421  0.966301614649033  0.47098372747719086  1.0000
  C   C21       1.0  0.04881382947557755  0.9084579134947567  0.1639015325275135  1.0000
  N   N3        1.0  0.08523896707829226  0.9793738179597297  0.05520344734843419  1.0000
  N   N4        1.0  0.12124981213775188  0.8778769917582142  0.9893372582179887  1.0000
  N   N5        1.0  0.10789144356531333  0.749580537030637  0.05426029995775439  1.0000
  N   N6        1.0  0.0628689617008431  0.7658422998849616  0.1634433666538675  1.0000
  H   H9        1.0  0.8125863641565207  0.3926471136969487  0.6049208804653112  1.0000
  H   H10       1.0  0.9486205991757982  0.3164277146744947  0.3511673637118049  1.0000
  H   H11       1.0  0.02468083060671633  0.19595413788800675  0.1799197182867045  1.0000
  H   H12       1.0  0.9631301380479672  0.7818372722813379  0.3777735683565382  1.0000
  H   H13       1.0  0.8664223052605571  0.6728440993917587  0.6897274963115334  1.0000
  H   H14       1.0  0.04388556101247887  0.6816773188659271  0.23302811984869765  1.0000
  C   C22       1.0  0.9144052877137374  0.5391210581077106  0.045016913636222844  1.0000
  C   C23       1.0  0.9761752141144946  0.5986277933206672  0.11724453368296772  1.0000
  C   C24       1.0  0.03373100043821098  0.6689952047657801  0.040932315315267864  1.0000
  C   C25       1.0  0.02972312400739563  0.6802125087979356  0.8893484944743788  1.0000
  C   C26       1.0  0.9695274012118008  0.6197973795594274  0.8158566997627639  1.0000
  C   C27       1.0  0.9119771761690001  0.5468123963923832  0.891486368996663  1.0000
  O   O1        1.0  0.09344213694978043  0.7267731278020688  0.11967264277421741  1.0000
  C   C28       1.0  0.15561745148734296  0.8012510532221697  0.056364945974020975  1.0000
  H   H15       1.0  0.7353744526500795  0.4545969976520816  0.1459913463688023  1.0000
  H   H16       1.0  0.9790119819441654  0.5935375220340302  0.2342975867288175  1.0000
  H   H17       1.0  0.07322563217483413  0.7342884387278363  0.8270754426546483  1.0000
  H   H18       1.0  0.9689532530422458  0.6272408887805094  0.6987913449129439  1.0000
  H   H19       1.0  0.7925604137197316  0.48416536654634856  0.6093059674295609  1.0000
  H   H20       1.0  0.1358748073352487  0.8992598280977147  0.9915300949611394  1.0000
  H   H21       1.0  0.18662739306186604  0.7289994696534146  0.9871508327804079  1.0000
  H   H22       1.0  0.1942125404623063  0.8348444339326258  0.14346919802084201  1.0000
  Zn  Zn1       1.0  0.8308928044771737  0.5448198648246783  0.4638906154850484  1.0000
  Zn  Zn2       1.0  0.9954824839312695  0.5411131045088406  0.4726116431130667  1.0000
  C   C29       1.0  0.9124098315246274  0.53961558145989  0.7314483828102121  1.0000
  C   C30       1.0  0.9139672615984265  0.5463191676390415  0.20505412421985847  1.0000
  C   C31       1.0  0.9143338064772539  0.8062109432642546  0.46420741721639547  1.0000
  C   C32       1.0  0.9120432228293215  0.27972207577615094  0.47229515249918474  1.0000
  O   O2        1.0  0.976281154628242  0.5473219334471517  0.2620736179947907  1.0000
  O   O3        1.0  0.9750156933773337  0.5357983790250187  0.6810475253092949  1.0000
  O   O4        1.0  0.9765684811816175  0.7510775378206349  0.465248519876722  1.0000
  O   O5        1.0  0.9747283110148891  0.3320427852471399  0.47787251245378237  1.0000
  O   O6        1.0  0.8516469212272025  0.7538901853528153  0.45862974316070293  1.0000
  O   O7        1.0  0.8500941410730458  0.5386127578821609  0.6744286829241364  1.0000
  O   O8        1.0  0.8513596071288657  0.550136246321514  0.25545304248030787  1.0000
  O   O9        1.0  0.8498067631582307  0.33485708879233433  0.4712520449292512  1.0000
