data_image0
_chemical_formula_structural       NC12NC2H8C12H16C7F3H5Zn2C4O8
_chemical_formula_sum              "N2 C37 H29 F3 Zn2 O8"
_cell_length_a       17.80743265337812
_cell_length_b       10.298977702784466
_cell_length_c       10.299327507215196
_cell_angle_alpha    85.53399873307336
_cell_angle_beta     91.5153373633688
_cell_angle_gamma    89.4320624770977

_space_group_name_H-M_alt    "P 1"
_space_group_IT_number       1

loop_
  _space_group_symop_operation_xyz
  'x, y, z'

loop_
  _atom_site_type_symbol
  _atom_site_label
  _atom_site_symmetry_multiplicity
  _atom_site_fract_x
  _atom_site_fract_y
  _atom_site_fract_z
  _atom_site_occupancy
  N   N1        1.0  0.7076220926191923  0.4069680475956241  0.6008870908776034  1.0000
  C   C1        1.0  0.6568136124051428  0.43653701548895474  0.5321786750995741  1.0000
  C   C2        1.0  0.5936028467481596  0.4733186648152936  0.44671405460678426  1.0000
  C   C3        1.0  0.6053504320389174  0.5273580454662918  0.32007660618688916  1.0000
  C   C4        1.0  0.5440466431083889  0.562635704725539  0.23700845075401245  1.0000
  C   C5        1.0  0.47084107544775583  0.5441375435227773  0.27991775492556403  1.0000
  C   C6        1.0  0.4581166365100638  0.4899792986012288  0.40702338646851666  1.0000
  C   C7        1.0  0.5202777444047268  0.4547048953148085  0.4900750290684315  1.0000
  C   C8        1.0  0.38034238625627603  0.47036659852063023  0.4527933511859594  1.0000
  C   C9        1.0  0.3615326370041816  0.49754214355297055  0.5798305382433253  1.0000
  C   C10       1.0  0.2882971144277438  0.47908555537318165  0.6227803929769666  1.0000
  C   C11       1.0  0.23292823222999962  0.43319903761194345  0.5395311144594745  1.0000
  C   C12       1.0  0.1575558767042558  0.4141894230674066  0.5838820783387202  1.0000
  N   N2        1.0  0.0969618404103759  0.39890697146769627  0.6195372022565304  1.0000
  C   C13       1.0  0.2510463983371983  0.40585450668722856  0.41303695350747227  1.0000
  C   C14       1.0  0.32422911081661193  0.4243259086680453  0.36983120491673693  1.0000
  H   H1        1.0  0.6618216334317993  0.542186854987941  0.28563476439850555  1.0000
  H   H2        1.0  0.5532604066981075  0.6047470859395694  0.13921561745242284  1.0000
  H   H3        1.0  0.4242121903029569  0.5737828009770591  0.21431728975352082  1.0000
  H   H4        1.0  0.5117624464711775  0.41120808540609  0.5877438402189894  1.0000
  H   H5        1.0  0.4031957576378766  0.5347181056230155  0.6453928483270572  1.0000
  H   H6        1.0  0.2748353578676151  0.5009229227570475  0.7207834734772081  1.0000
  H   H7        1.0  0.20866626992071702  0.3699459051574454  0.3478872132738935  1.0000
  H   H8        1.0  0.3371624860687531  0.4009528145594661  0.27213193328150775  1.0000
  C   C15       1.0  0.9023100324194245  0.02153212953169148  0.6103441288320721  1.0000
  C   C16       1.0  0.9040649210807817  0.009676007648942608  0.7471959391437928  1.0000
  C   C17       1.0  0.9051265905927546  0.8864424613255248  0.8164514774856957  1.0000
  C   C18       1.0  0.9040236008074445  0.7744142727882755  0.7468928075819308  1.0000
  C   C19       1.0  0.9022810851759607  0.7843327222378285  0.6100916693340437  1.0000
  C   C20       1.0  0.9014909588911683  0.9083421436788021  0.542625424313721  1.0000
  C   C21       1.0  0.9068555330742584  0.8734281464351275  0.9644341097191369  1.0000
  C   C22       1.0  0.833400034492441  0.9266901131738683  0.01945312944470401  1.0000
  C   C23       1.0  0.843812299481252  0.9721774854722317  0.1579314447381015  1.0000
  C   C24       1.0  0.9063519448715585  0.8952971285127591  0.23587692424861417  1.0000
  C   C25       1.0  0.9830121084596002  0.9121113409954469  0.17062815853253355  1.0000
  C   C26       1.0  0.9767165855258858  0.9383239068994449  0.021169685754912293  1.0000
  H   H9        1.0  0.8986721103575911  0.2512350650934585  0.35200512975455944  1.0000
  H   H10       1.0  0.9043186647033573  0.0964081838345745  0.800224573872806  1.0000
  H   H11       1.0  0.9045460904552437  0.6792490641311728  0.7997092153814553  1.0000
  H   H12       1.0  0.9001442551779504  0.9166940341442569  0.437109219112938  1.0000
  H   H13       1.0  0.9013721158717668  0.4606728923438228  0.5574213736820928  1.0000
  H   H14       1.0  0.9112441560083454  0.7681195182128876  0.9982244006958154  1.0000
  H   H15       1.0  0.7906680943139793  0.8485951428507268  0.02089917172429112  1.0000
  H   H16       1.0  0.8099966977008228  0.01005068594725933  0.9554491907029414  1.0000
  H   H17       1.0  0.8580658895927635  0.07736854662092685  0.15149417728519154  1.0000
  H   H18       1.0  0.7901646964767466  0.9610062702213473  0.21019210481447304  1.0000
  H   H19       1.0  0.8914547756394215  0.7903941606288989  0.24443709072608155  1.0000
  H   H20       1.0  0.9103875816565727  0.9280815965596925  0.33609076214894695  1.0000
  H   H21       1.0  0.01742797025938292  0.8225218890182644  0.19551162746807105  1.0000
  H   H22       1.0  0.013314435164699434  0.9942597212301241  0.2114693393129944  1.0000
  H   H23       1.0  0.9735651865635628  0.04533468686207209  0.996668118560915  1.0000
  H   H24       1.0  0.028361094290713984  0.9011892265709347  0.9774092930089147  1.0000
  C   C27       1.0  0.9023675018842979  0.4029837146267212  0.2288397629527128  1.0000
  C   C28       1.0  0.9753715964146812  0.4535497438123659  0.22704917883703368  1.0000
  C   C29       1.0  0.011650622042771674  0.4812741761369139  0.10882264410632003  1.0000
  C   C30       1.0  0.9751826921320013  0.4534159264494606  0.9918027176531279  1.0000
  C   C31       1.0  0.9022236441253154  0.4028812054326518  0.9915960829218475  1.0000
  C   C32       1.0  0.8661275706810281  0.3784419766949765  0.11060286567113065  1.0000
  C   C33       1.0  0.09105201812489394  0.5311340590068336  0.10834682821020847  1.0000
  F   F1        1.0  0.10417190747225025  0.6067081354108328  0.2118414963341484  1.0000
  F   F2        1.0  0.14067963556243868  0.42655256179856393  0.1186271175127771  1.0000
  F   F3        1.0  0.10396552256761482  0.6066947866954355  0.9941882122605339  1.0000
  H   H25       1.0  0.7651099371280493  0.3053776619068438  0.43965003002790715  1.0000
  H   H26       1.0  0.00418136157120208  0.4712208517806187  0.31781973660557994  1.0000
  H   H27       1.0  0.003862885382199366  0.4709917514583093  0.9007905380258467  1.0000
  H   H28       1.0  0.8098592278194542  0.3394711317431165  0.11117798794774592  1.0000
  H   H29       1.0  0.8746648264644851  0.38131105923924413  0.6642517235759122  1.0000
  Zn  Zn1       1.0  0.819977135688206  0.4046383265365068  0.6062765984182252  1.0000
  Zn  Zn2       1.0  0.9846067932511687  0.40122609663265996  0.6141582915294728  1.0000
  C   C34       1.0  0.9022493360599629  0.39772642694705507  0.8474204257535767  1.0000
  C   C35       1.0  0.9023363905439284  0.4081395977195017  0.37301467718919956  1.0000
  C   C36       1.0  0.9022836696921221  0.6401479867827087  0.6049639342113873  1.0000
  C   C37       1.0  0.9023020007813211  0.1657164785874048  0.6154712357986107  1.0000
  O   O1        1.0  0.9648020465793631  0.40856936943734623  0.42439215879608816  1.0000
  O   O2        1.0  0.9647337809515407  0.3947058719200658  0.8020245933173105  1.0000
  O   O3        1.0  0.9647606633313114  0.5904643646010845  0.606239220208663  1.0000
  O   O4        1.0  0.9647751080406584  0.21281088722488883  0.6201774318351467  1.0000
  O   O5        1.0  0.8398087647186954  0.5930535371101193  0.6002574554160849  1.0000
  O   O6        1.0  0.839781882289352  0.39729660489138485  0.7960427587610444  1.0000
  O   O7        1.0  0.8398501482633975  0.41116005735723515  0.41840876281868367  1.0000
  O   O8        1.0  0.8398232097036057  0.21540156584205827  0.6141941332308645  1.0000
