data_image0
_chemical_formula_structural       NC12NC2H8C6SCNH5C6NCSNH8Zn2C4O8
_chemical_formula_sum              "N5 C32 H21 S2 Zn2 O8"
_cell_length_a       17.80743265337812
_cell_length_b       9.27526961838325
_cell_length_c       9.275081717742442
_cell_angle_alpha    86.3904649231249
_cell_angle_beta     91.71745222805815
_cell_angle_gamma    88.87871087483882

_space_group_name_H-M_alt    "P 1"
_space_group_IT_number       1

loop_
  _space_group_symop_operation_xyz
  'x, y, z'

loop_
  _atom_site_type_symbol
  _atom_site_label
  _atom_site_symmetry_multiplicity
  _atom_site_fract_x
  _atom_site_fract_y
  _atom_site_fract_z
  _atom_site_occupancy
  N   N1        1.0  0.6971986312204875  0.5463567231132866  0.45444203960694485  1.0000
  C   C1        1.0  0.6460958159394737  0.5784154418860465  0.3783413525508561  1.0000
  C   C2        1.0  0.5825189258385239  0.6182942014934358  0.28368168509073355  1.0000
  C   C3        1.0  0.5937265476565867  0.6768718320071183  0.14341710521755546  1.0000
  C   C4        1.0  0.5320695018449061  0.7151076778827228  0.05140933768637601  1.0000
  C   C5        1.0  0.45904792615738993  0.6950511135611941  0.098935049794451  1.0000
  C   C6        1.0  0.4468650015672878  0.6363467577114437  0.23971860340295303  1.0000
  C   C7        1.0  0.5093793167974838  0.598114341886272  0.3317080619632127  1.0000
  C   C8        1.0  0.3692863563272162  0.6150848383061271  0.29041334319327405  1.0000
  C   C9        1.0  0.3505703304664722  0.6466759729378408  0.43153365806905275  1.0000
  C   C10       1.0  0.2775186487069114  0.6266660163139293  0.47910458304582826  1.0000
  C   C11       1.0  0.22224288907435572  0.5747918832849874  0.3864839516260947  1.0000
  C   C12       1.0  0.14706010156870067  0.5541836328903189  0.4356069831624838  1.0000
  N   N2        1.0  0.0866184650829144  0.5376159848205635  0.47509852104286554  1.0000
  C   C13       1.0  0.2402693018703493  0.5430192157930829  0.2459654148556989  1.0000
  C   C14       1.0  0.3132676019190436  0.5630427562172919  0.19811058100583723  1.0000
  H   H1        1.0  0.6500501697153703  0.6929494211061662  0.10526973289613961  1.0000
  H   H2        1.0  0.5408641956721522  0.7607655705226031  0.943095200014358  1.0000
  H   H3        1.0  0.41213023828685225  0.7272292935524838  0.026283868928609344  1.0000
  H   H4        1.0  0.5012904764808302  0.550916967833107  0.4398775330237277  1.0000
  H   H5        1.0  0.3921543978334421  0.6886818588910275  0.5044815721582747  1.0000
  H   H6        1.0  0.2641243916819693  0.6520059692610154  0.5879765480163965  1.0000
  H   H7        1.0  0.19796204132780554  0.5024249603873354  0.17348179064447722  1.0000
  H   H8        1.0  0.3261425120952871  0.5360012475889417  0.08956798198098004  1.0000
  C   C15       1.0  0.8940261159106666  0.11855400425635332  0.4629813522934161  1.0000
  C   C16       1.0  0.8670355985396146  0.20094347894303222  0.33906220037520907  1.0000
  C   C17       1.0  0.8343306315608534  0.1345716320725001  0.2225633180026354  1.0000
  C   C18       1.0  0.8281171652063257  0.9846648801643691  0.22758442058884  1.0000
  C   C19       1.0  0.8554832281926946  0.9007099136903647  0.3489472633589845  1.0000
  C   C20       1.0  0.8897982559004548  0.9654076160618777  0.4665719132085473  1.0000
  S   S1        1.0  0.7851864591899241  0.8999223571485125  0.0784499562540002  1.0000
  C   C21       1.0  0.8714748575672818  0.8808318387144043  0.9920825835065443  1.0000
  N   N3        1.0  0.9280580893355312  0.8683287741685025  0.9354911808941875  1.0000
  H   H9        1.0  0.9754087240665122  0.38501698261352724  0.6475464694912714  1.0000
  H   H10       1.0  0.86958222751369  0.31774784354444163  0.3336044063632091  1.0000
  H   H11       1.0  0.8132649545524613  0.20009717425544493  0.12874219963924527  1.0000
  H   H12       1.0  0.8516320494895625  0.784215222514532  0.34970084067876384  1.0000
  H   H13       1.0  0.014508196230740955  0.8407853368446384  0.735614410208498  1.0000
  C   C22       1.0  0.8912534382267522  0.5377716806979016  0.0415338141732291  1.0000
  C   C23       1.0  0.8239318373293087  0.5707058602776898  0.10880750918510596  1.0000
  C   C24       1.0  0.7598436631472921  0.6166734742497209  0.02726961215124346  1.0000
  C   C25       1.0  0.7617647146673383  0.6324620451733545  0.8761918721513067  1.0000
  C   C26       1.0  0.8277372078090742  0.5950366767809601  0.8077186423593163  1.0000
  C   C27       1.0  0.8925709333281399  0.5461899561537302  0.8880195336996524  1.0000
  N   N4        1.0  0.69604088719257  0.6777539808219513  0.7901172487359274  1.0000
  C   C28       1.0  0.6394503852916417  0.7760524574190812  0.8354157354331462  1.0000
  S   S2        1.0  0.5549523234065945  0.775351608299883  0.7609547847389484  1.0000
  N   N5        1.0  0.6578953096651152  0.8853335404554596  0.9318813625337974  1.0000
  H   H14       1.0  0.9965356532989487  0.4078543391923668  0.3369988623007194  1.0000
  H   H15       1.0  0.821169412379119  0.5635341888796723  0.22555290920366478  1.0000
  H   H16       1.0  0.7086669854937377  0.6395293745796693  0.08244122093147688  1.0000
  H   H17       1.0  0.8279008532391338  0.6020454336537739  0.6906480969269095  1.0000
  H   H18       1.0  0.016577012714680484  0.5327832169187792  0.615075873529646  1.0000
  H   H19       1.0  0.6892910333979577  0.6376334141833007  0.6877913523346151  1.0000
  H   H20       1.0  0.7134142780969904  0.9007117464313159  0.9657514874127444  1.0000
  H   H21       1.0  0.6163967530124471  0.9561897360975105  0.964726753853594  1.0000
  Zn  Zn1       1.0  0.8095768188321771  0.5438305677778301  0.4604113466123858  1.0000
  Zn  Zn2       1.0  0.9742403519953078  0.5401304951959951  0.46914092032529386  1.0000
  C   C29       1.0  0.8923488923692364  0.5388544167284022  0.7279911350751391  1.0000
  C   C30       1.0  0.8914700677160697  0.5451084266001642  0.20156137636530258  1.0000
  C   C31       1.0  0.8905845974798039  0.805277210815905  0.4601496546418806  1.0000
  C   C32       1.0  0.8932343151858412  0.27868390214187544  0.46940292331546685  1.0000
  O   O1        1.0  0.9540317546415245  0.5461602566358432  0.25858088916430444  1.0000
  O   O2        1.0  0.9547630218447356  0.5349932253090037  0.677596747229559  1.0000
  O   O3        1.0  0.9533374913605223  0.7501330347434667  0.4613128184545623  1.0000
  O   O4        1.0  0.9554572287175348  0.33102045770414823  0.4748647069379137  1.0000
  O   O5        1.0  0.8283598859183479  0.7529406065338247  0.4546875570132156  1.0000
  O   O6        1.0  0.8297854076306201  0.537802528734296  0.6709714162847578  1.0000
  O   O7        1.0  0.8290541380312155  0.5489694925795194  0.2519538251681752  1.0000
  O   O8        1.0  0.8304796123238265  0.33382968440920435  0.4682377509566229  1.0000
