data_image0
_chemical_formula_structural       NC12NC2H8C12H16C9H10Zn2C4O8
_chemical_formula_sum              "N2 C39 H34 Zn2 O8"
_cell_length_a       17.80743265337812
_cell_length_b       10.298977702784466
_cell_length_c       10.297187173949778
_cell_angle_alpha    85.5489311861255
_cell_angle_beta     91.50840816747596
_cell_angle_gamma    89.4320624770977

_space_group_name_H-M_alt    "P 1"
_space_group_IT_number       1

loop_
  _space_group_symop_operation_xyz
  'x, y, z'

loop_
  _atom_site_type_symbol
  _atom_site_label
  _atom_site_symmetry_multiplicity
  _atom_site_fract_x
  _atom_site_fract_y
  _atom_site_fract_z
  _atom_site_occupancy
  N   N1        1.0  0.7077225358592542  0.406600204944209  0.6006294598467188  1.0000
  C   C1        1.0  0.6569189882677653  0.43615110861579653  0.5319083921805734  1.0000
  C   C2        1.0  0.5937143581723487  0.47291028832413695  0.4464280343315359  1.0000
  C   C3        1.0  0.6054710348491912  0.5269163745537262  0.31976726703853764  1.0000
  C   C4        1.0  0.5441732094364194  0.5621721942528184  0.23668381553171414  1.0000
  C   C5        1.0  0.47096456128849223  0.5436853143927658  0.2796010209728461  1.0000
  C   C6        1.0  0.45823099735354006  0.4895604869832795  0.4067300575996  1.0000
  C   C7        1.0  0.5203861429159133  0.45430791891560296  0.4897969932328079  1.0000
  C   C8        1.0  0.3804534612437477  0.46995982034549044  0.45250845034534337  1.0000
  C   C9        1.0  0.36163459190806796  0.49716876489506134  0.5795690298832223  1.0000
  C   C10       1.0  0.2883959859331841  0.4787234687191848  0.6225267933533771  1.0000
  C   C11       1.0  0.23303308025614292  0.4328150637784782  0.5392621854101436  1.0000
  C   C12       1.0  0.157657540745402  0.413817109605338  0.5836213160245185  1.0000
  N   N2        1.0  0.0970609447466206  0.398544032142077  0.6192830054355578  1.0000
  C   C13       1.0  0.2511603274627239  0.40543727610425484  0.4127447319698263  1.0000
  C   C14       1.0  0.3243461417113725  0.423897318803762  0.3695310275225787  1.0000
  H   H1        1.0  0.6619447088446486  0.5417361289245575  0.28531908316929133  1.0000
  H   H2        1.0  0.5533939936382473  0.6042578646218859  0.1388729747710462  1.0000
  H   H3        1.0  0.4243403856444264  0.573313324740766  0.21398847620711248  1.0000
  H   H4        1.0  0.5118638332738872  0.4108367872450165  0.5874837890051483  1.0000
  H   H5        1.0  0.4032930057802085  0.5343619640399819  0.6451434125348106  1.0000
  H   H6        1.0  0.2749271936671612  0.5005866022243852  0.7205479200273726  1.0000
  H   H7        1.0  0.20878487618913483  0.36951154596888824  0.3475829951385261  1.0000
  H   H8        1.0  0.337286530858769  0.4004985384486437  0.2718137656566084  1.0000
  C   C15       1.0  0.9024097967324841  0.02116677324280869  0.6100882392092051  1.0000
  C   C16       1.0  0.9041548607119686  0.009346631253053461  0.7469652492547991  1.0000
  C   C17       1.0  0.9052115583230904  0.8861312929961057  0.816233540231333  1.0000
  C   C18       1.0  0.9041135622006463  0.7740848166956605  0.7466620618746425  1.0000
  C   C19       1.0  0.9023808676132542  0.7839672995744803  0.6098357332235769  1.0000
  C   C20       1.0  0.901595584774763  0.9079589833744907  0.5423570650470231  1.0000
  C   C21       1.0  0.9069298770336625  0.8731558844180218  0.9642434218153066  1.0000
  C   C22       1.0  0.8334704286000709  0.92643231628103  0.019272572679453037  1.0000
  C   C23       1.0  0.8438727521391423  0.9719560960989929  0.15777638720946785  1.0000
  C   C24       1.0  0.9064068017719803  0.8950962318900781  0.23573621951031531  1.0000
  C   C25       1.0  0.9830716496120189  0.9118932897322606  0.17047543896207518  1.0000
  C   C26       1.0  0.9767868564008042  0.9380665613087283  0.02098944507435241  1.0000
  H   H9        1.0  0.8987904209980644  0.2508017885518461  0.3517016698875639  1.0000
  H   H10       1.0  0.9044047973738241  0.09609274926816291  0.8000036486152029  1.0000
  H   H11       1.0  0.9046322601236368  0.6789334940711695  0.7994881952263366  1.0000
  H   H12       1.0  0.9002564561396251  0.9162831324329187  0.43682143021440467  1.0000
  H   H13       1.0  0.9014756795443815  0.4602936220624041  0.5571557389243773  1.0000
  H   H14       1.0  0.911316074140437  0.767856140046502  0.9980399348970361  1.0000
  H   H15       1.0  0.7907383846092786  0.8483377261388035  0.020718881231591157  1.0000
  H   H16       1.0  0.8100716866934989  0.009776061693044902  0.9552568483265285  1.0000
  H   H17       1.0  0.8581268043863368  0.07714546481706863  0.15133793440558374  1.0000
  H   H18       1.0  0.7902213973073241  0.9607986207683408  0.21004667050326709  1.0000
  H   H19       1.0  0.8915090179998366  0.7901955145710672  0.24429796224692502  1.0000
  H   H20       1.0  0.9104352441393659  0.9279070472915398  0.33596851067070943  1.0000
  H   H21       1.0  0.01748572501112755  0.8223103799012693  0.1953634899107668  1.0000
  H   H22       1.0  0.01337104430176872  0.9940524075765528  0.2113241401902699  1.0000
  H   H23       1.0  0.9736372164221769  0.04507089953146326  0.9964833661901455  1.0000
  H   H24       1.0  0.028434506753137745  0.9009203758766698  0.9772209943403101  1.0000
  C   C27       1.0  0.9024946546478225  0.4025180565133346  0.22851362355770188  1.0000
  C   C28       1.0  0.826359567176692  0.43976773753073073  0.22137228014139265  1.0000
  C   C29       1.0  0.787353317856257  0.45885162920673706  0.10109715572427103  1.0000
  C   C30       1.0  0.8260644301830673  0.43991163737369576  0.9861353694610462  1.0000
  C   C31       1.0  0.9022960214269303  0.4026160887774113  0.9914103856616996  1.0000
  C   C32       1.0  0.940013313238684  0.3841615724160772  0.11296456008406563  1.0000
  C   C33       1.0  0.7050077333555906  0.49913955673262644  0.10280545029647037  1.0000
  C   C34       1.0  0.6524143823929505  0.44798736839697395  3.101321860876638e-05  1.0000
  C   C35       1.0  0.6747486069309965  0.5908135379094859  0.9899543974396945  1.0000
  H   H25       1.0  0.9318339675081848  0.388176304708586  0.5588029156272225  1.0000
  H   H26       1.0  0.7969673040118448  0.4541484823271582  0.3100376906418829  1.0000
  H   H27       1.0  0.7974877658085568  0.45389000194708884  0.8921547327045198  1.0000
  H   H28       1.0  0.9987529850181256  0.35542201799271744  0.11774690244503283  1.0000
  H   H29       1.0  0.046273183132348406  0.3321587384499942  0.7941581263261561  1.0000
  H   H30       1.0  0.6785406305321884  0.5120898727719325  0.19761059076709064  1.0000
  H   H31       1.0  0.6778586780063597  0.3888385102359966  0.926744383281974  1.0000
  H   H32       1.0  0.5940262533514119  0.4316215384862345  0.0323579564168901  1.0000
  H   H33       1.0  0.7137600911653472  0.6184235978576658  0.9105477205141095  1.0000
  H   H34       1.0  0.6294131786419578  0.6579237205979402  0.016389553061495477  1.0000
  Zn  Zn1       1.0  0.820077192011961  0.40427190084774756  0.6060199598050182  1.0000
  Zn  Zn2       1.0  0.9847062837429684  0.4008617431304071  0.6139031042421079  1.0000
  C   C36       1.0  0.9023320805090431  0.3974234007053603  0.8472081910854854  1.0000
  C   C37       1.0  0.9024531928951116  0.40771184482618317  0.3727150859959387  1.0000
  C   C38       1.0  0.9023838202529075  0.6397812159796428  0.6047070538857129  1.0000
  C   C39       1.0  0.9024013970159841  0.16535247027309108  0.6152162902752834  1.0000
  O   O1        1.0  0.9649151605071994  0.40815512426662415  0.42410202819279474  1.0000
  O   O2        1.0  0.9648197843974222  0.3943909105991805  0.8018039995132038  1.0000
  O   O3        1.0  0.9648607223384728  0.5900979290851698  0.6059825747126755  1.0000
  O   O4        1.0  0.9648741664143987  0.21244811622288706  0.6199233529053068  1.0000
  O   O5        1.0  0.8399092531607029  0.5926855289204005  0.5999997084448554  1.0000
  O   O6        1.0  0.839868315175088  0.39698007087835396  0.7958210634688494  1.0000
  O   O7        1.0  0.839963691743184  0.41074423908385205  0.4181175304397837  1.0000
  O   O8        1.0  0.8399226976223059  0.2150372217629959  0.613938952543349  1.0000
