data_image0
_chemical_formula_structural       NC12NC2H8C7F3H5C12H16Zn2C4O8
_chemical_formula_sum              "N2 C37 H29 F3 Zn2 O8"
_cell_length_a       17.80743265337812
_cell_length_b       10.29932413504667
_cell_length_c       10.298981074953016
_cell_angle_alpha    85.571303150447
_cell_angle_beta     91.51542336112495
_cell_angle_gamma    89.4159334836852

_space_group_name_H-M_alt    "P 1"
_space_group_IT_number       1

loop_
  _space_group_symop_operation_xyz
  'x, y, z'

loop_
  _atom_site_type_symbol
  _atom_site_label
  _atom_site_symmetry_multiplicity
  _atom_site_fract_x
  _atom_site_fract_y
  _atom_site_fract_z
  _atom_site_occupancy
  N   N1        1.0  0.7074035422888468  0.4065838573262468  0.6014763555715479  1.0000
  C   C1        1.0  0.6565904932053703  0.4361365153914494  0.5327796396557076  1.0000
  C   C2        1.0  0.59337404420427  0.4728978772426937  0.4473295730057787  1.0000
  C   C3        1.0  0.6051132802205891  0.5269072267550778  0.3207134883216778  1.0000
  C   C4        1.0  0.5438040410123511  0.5621651979861915  0.23765927251388752  1.0000
  C   C5        1.0  0.4706013316535533  0.5436772245517483  0.28056125603241067  1.0000
  C   C6        1.0  0.45788526023847  0.48954911655955313  0.407645480149156  1.0000
  C   C7        1.0  0.5200518179132533  0.4542943976306051  0.49068318425656776  1.0000
  C   C8        1.0  0.3801140403334707  0.4699472757624321  0.4534076879269482  1.0000
  C   C9        1.0  0.3612999749161542  0.4971476812491189  0.5804589383695824  1.0000
  C   C10       1.0  0.2880673041334073  0.4787012866446938  0.6234014912872525  1.0000
  C   C11       1.0  0.23270562904890643  0.4328002940637259  0.540130751212198  1.0000
  C   C12       1.0  0.157336210696632  0.41380120245478347  0.584474196474033  1.0000
  N   N2        1.0  0.09674453569272341  0.39852721057327667  0.6201232759279236  1.0000
  C   C13       1.0  0.250828137339706  0.4054310274003503  0.41362246262783464  1.0000
  C   C14       1.0  0.32400799587284823  0.4238921812288199  0.37042401785942425  1.0000
  H   H1        1.0  0.6615821903202996  0.5417278601325726  0.2862775142705938  1.0000
  H   H2        1.0  0.5530112976960879  0.6042533637177525  0.13988310290593176  1.0000
  H   H3        1.0  0.4239678638283224  0.5733068184646113  0.21497257809503756  1.0000
  H   H4        1.0  0.5115432430149881  0.4108208668519171  0.5883347253293616  1.0000
  H   H5        1.0  0.4029572577101651  0.5343349756665252  0.6460386032083918  1.0000
  H   H6        1.0  0.2746020817583205  0.500557776208914  0.7214158016404615  1.0000
  H   H7        1.0  0.2084536488682464  0.36951109797507997  0.348455927553172  1.0000
  H   H8        1.0  0.3369450762442578  0.4005001279567346  0.2727128518851065  1.0000
  C   C15       1.0  0.9021515836956264  0.021174857769851174  0.6107654584664091  1.0000
  C   C16       1.0  0.9771332426646306  0.021694122683481032  0.5714991036345203  1.0000
  C   C17       1.0  0.014503046224600302  0.9050152141026878  0.549402027065955  1.0000
  C   C18       1.0  0.9769391145785136  0.7864411938589593  0.5716036824319846  1.0000
  C   C19       1.0  0.9020036984991391  0.7839260496982843  0.6108457076897957  1.0000
  C   C20       1.0  0.8649532975910292  0.9018774383325399  0.629700559635217  1.0000
  C   C21       1.0  0.09584152883498853  0.9062604680798411  0.5118082010039859  1.0000
  F   F1        1.0  0.11208366597596098  0.020408652994785337  0.4385725107184366  1.0000
  F   F2        1.0  0.14103088884492387  0.8967132091871138  0.623428132169898  1.0000
  F   F3        1.0  0.1118770415280661  0.8027686583413576  0.438554535689315  1.0000
  H   H9        1.0  0.7610703866616165  0.2272519216704163  0.6871148466891774  1.0000
  H   H10       1.0  0.006628376865672747  0.11302457531851928  0.5582765592067493  1.0000
  H   H11       1.0  0.006300917639436188  0.6959838288200407  0.5584564152326732  1.0000
  H   H12       1.0  0.807160805059354  0.9006727684290785  0.6599621420896691  1.0000
  H   H13       1.0  0.8735950427751555  0.4553275152979979  0.628138757286975  1.0000
  C   C22       1.0  0.9021498020075248  0.4025218254309093  0.22942081369898726  1.0000
  C   C23       1.0  0.9751863283430338  0.3491548336704413  0.2357122112889416  1.0000
  C   C24       1.0  0.01221234914783631  0.3224256719765417  0.12164697248365153  1.0000
  C   C25       1.0  0.9750105304103606  0.34921312862568743  0.00041376005653348535  1.0000
  C   C26       1.0  0.9020054431403275  0.40257908577720025  0.9921903075330718  1.0000
  C   C27       1.0  0.8660274232784466  0.42900844617768197  0.10724652286821712  1.0000
  C   C28       1.0  0.09112614361351401  0.264448095474358  0.12827116443963216  1.0000
  C   C29       1.0  0.09273763781735966  0.12431832456359593  0.19545323169565254  1.0000
  C   C30       1.0  0.16987406194996701  0.08413742282155878  0.25853242113853114  1.0000
  C   C31       1.0  0.2345016134519975  0.1522199079098283  0.18649124187582  1.0000
  C   C32       1.0  0.2286788199295684  0.3016771280735491  0.1877309799846758  1.0000
  C   C33       1.0  0.14727565261905973  0.352952773796259  0.1945153608725816  1.0000
  H   H14       1.0  0.764155012528799  0.5027437568026478  0.4248951274802104  1.0000
  H   H15       1.0  0.003327675708641342  0.327793539211628  0.32951446468151446  1.0000
  H   H16       1.0  0.0031402072531092617  0.32836913602455  0.9122661150853553  1.0000
  H   H17       1.0  0.8097168271511854  0.47016583610436324  0.10160560461866885  1.0000
  H   H18       1.0  0.8738084343842807  0.42274476065859323  0.6615669875272898  1.0000
  H   H19       1.0  0.11063974913805597  0.25760056938871356  0.027090165486145734  1.0000
  H   H20       1.0  0.07751186327353854  0.05534388088507969  0.12136848605817496  1.0000
  H   H21       1.0  0.05012876088236484  0.11314008251855201  0.27234347305379947  1.0000
  H   H22       1.0  0.1718032430122376  0.10958876129530482  0.36158921268975663  1.0000
  H   H23       1.0  0.1774389881692764  0.9768369751800409  0.2591430288536729  1.0000
  H   H24       1.0  0.23345436653486584  0.12486718419389908  0.08406394485056712  1.0000
  H   H25       1.0  0.28901404168638334  0.1175418054270223  0.2323191211147515  1.0000
  H   H26       1.0  0.25471817012315623  0.3465360459251936  0.0983955968696919  1.0000
  H   H27       1.0  0.26161879687887324  0.333403102116294  0.27263526665110716  1.0000
  H   H28       1.0  0.13313764477372425  0.3579672600741455  0.2985304800597479  1.0000
  H   H29       1.0  0.14345687295914744  0.45355863566021304  0.14691465891162125  1.0000
  Zn  Zn1       1.0  0.8197589453510847  0.40425541628252293  0.606864940869577  1.0000
  Zn  Zn2       1.0  0.9843891301861604  0.4008450586287764  0.614745283006745  1.0000
  C   C34       1.0  0.9020320751115787  0.39739449180060804  0.8480099513419672  1.0000
  C   C35       1.0  0.9021177978403035  0.40770758454909783  0.37360048623159914  1.0000
  C   C36       1.0  0.9020287532268614  0.6397495644764746  0.6056549663431758  1.0000
  C   C37       1.0  0.9021210638376982  0.16535095269172428  0.6159555376187258  1.0000
  O   O1        1.0  0.9645833552155458  0.40814809381013584  0.4249790496073169  1.0000
  O   O2        1.0  0.9645170190037032  0.3943646202100517  0.8026120113449995  1.0000
  O   O3        1.0  0.9645134940738764  0.5900694239420892  0.6069086060842106  1.0000
  O   O4        1.0  0.9645868239848677  0.2124433005250146  0.6206823548013409  1.0000
  O   O5        1.0  0.839561195372176  0.592657175551486  0.6009278663789759  1.0000
  O   O6        1.0  0.8395647200091242  0.3969539321661564  0.796631202555425  1.0000
  O   O7        1.0  0.8396310565751772  0.41073736039055375  0.41899667934977614  1.0000
  O   O8        1.0  0.8396345253248029  0.21503255782371777  0.6147000819145603  1.0000
