data_image0
_chemical_formula_structural       NC12NC2H8C10H6C6OCH8Zn2C4O8
_chemical_formula_sum              "N2 C35 H22 O9 Zn2"
_cell_length_a       17.80743265337812
_cell_length_b       10.30283237001006
_cell_length_c       9.273891588657152
_cell_angle_alpha    86.0762954358485
_cell_angle_beta     91.22048166911064
_cell_angle_gamma    89.43531271068052

_space_group_name_H-M_alt    "P 1"
_space_group_IT_number       1

loop_
  _space_group_symop_operation_xyz
  'x, y, z'

loop_
  _atom_site_type_symbol
  _atom_site_label
  _atom_site_symmetry_multiplicity
  _atom_site_fract_x
  _atom_site_fract_y
  _atom_site_fract_z
  _atom_site_occupancy
  N   N1        1.0  0.7119246065325546  0.39351527152622  0.4479409163888173  1.0000
  C   C1        1.0  0.6613259536014381  0.4224393020483699  0.37170701894886626  1.0000
  C   C2        1.0  0.5983761867305277  0.458418729840957  0.27688164712410757  1.0000
  C   C3        1.0  0.610510490629059  0.5112696000088062  0.13637370871717303  1.0000
  C   C4        1.0  0.5494603644721436  0.545767720212921  0.04420710791324356  1.0000
  C   C5        1.0  0.4761237557466201  0.527672343532426  0.09181616206014387  1.0000
  C   C6        1.0  0.4630111714839699  0.4747069708976528  0.23284359300049173  1.0000
  C   C7        1.0  0.52491866689072  0.4402119531975739  0.3249918709431123  1.0000
  C   C8        1.0  0.3850971483644284  0.455523860846496  0.2836266723577556  1.0000
  C   C9        1.0  0.3659024721664674  0.4838593218019387  0.424608021528873  1.0000
  C   C10       1.0  0.2925357868732626  0.4658058753169303  0.47226208932855296  1.0000
  C   C11       1.0  0.23741811352217232  0.4191704075519189  0.3798646909835819  1.0000
  C   C12       1.0  0.1619103183086474  0.40057706648080793  0.429073346675205  1.0000
  N   N2        1.0  0.10120739782202791  0.38562927012860104  0.46863372062366215  1.0000
  C   C13       1.0  0.2559195506335291  0.39067103214698573  0.2394858681369565  1.0000
  C   C14       1.0  0.3292342037711369  0.40873692834449504  0.191547843985457  1.0000
  H   H1        1.0  0.6670868735315845  0.5257751156339612  0.09815953017783263  1.0000
  H   H2        1.0  0.5589727766320526  0.5869611504475891  0.9357032501446674  1.0000
  H   H3        1.0  0.4296952589054177  0.5567012747475342  0.019031141446760547  1.0000
  H   H4        1.0  0.5161050458806931  0.3976325019667821  0.4333575942822929  1.0000
  H   H5        1.0  0.4073677936969429  0.5216247008118737  0.49737524229827623  1.0000
  H   H6        1.0  0.278777109989034  0.48853771518862166  0.5810227408314113  1.0000
  H   H7        1.0  0.2137360148625355  0.35417631202796684  0.16717693573469372  1.0000
  H   H8        1.0  0.3424635195481753  0.3844727718768508  0.08312376088030593  1.0000
  C   C15       1.0  0.9065695499789717  0.008319694319341098  0.45829370494952393  1.0000
  C   C16       1.0  0.9431129274494557  0.014787929816066914  0.3252960181113742  1.0000
  C   C17       1.0  0.9612939465611559  0.9009025267507004  0.2591276005261882  1.0000
  C   C18       1.0  0.9431130284832985  0.7794853381617127  0.3252963252856431  1.0000
  C   C19       1.0  0.9065696034288967  0.7708148473154949  0.45829373725950795  1.0000
  C   C20       1.0  0.8884882984379241  0.8858219784253983  0.5240994586388352  1.0000
  C   C21       1.0  0.9987543801885237  0.9086619214699964  0.12279221280563446  1.0000
  C   C22       1.0  0.030116814331124564  0.9151582715747549  0.008649524196891356  1.0000
  C   C23       1.0  0.06684191006402851  0.9227653590621343  0.8749896347938537  1.0000
  C   C24       1.0  0.09819951787547021  0.929260727413146  0.7608643099093051  1.0000
  H   H9        1.0  0.8927312756917396  0.33319262547639616  0.5086575855270135  1.0000
  H   H10       1.0  0.9575285402974143  0.10819219307376393  0.27283107214499314  1.0000
  H   H11       1.0  0.9575287759800901  0.6920530830584851  0.2728311608887344  1.0000
  H   H12       1.0  0.860306360119602  0.8799846705631763  0.6266655880791563  1.0000
  H   H13       1.0  0.8927310640587989  0.44020901661835904  0.5086573641556411  1.0000
  H   H14       1.0  0.12573408425111632  0.9349643240461231  0.6606527665341999  1.0000
  C   C25       1.0  0.9078001300464759  0.3861039039131027  0.03508379791935323  1.0000
  C   C26       1.0  0.9693146825334822  0.4396945669433465  0.10692737586382828  1.0000
  C   C27       1.0  0.026568486212764197  0.5030661537321388  0.030161023211564775  1.0000
  C   C28       1.0  0.02251247057850958  0.5131682498787971  0.8785048085986618  1.0000
  C   C29       1.0  0.9625760200812217  0.4587595040223358  0.8054029185450426  1.0000
  C   C30       1.0  0.9053390110253124  0.39303058064625573  0.8815036152394353  1.0000
  O   O1        1.0  0.08603166803010676  0.5550998805522067  0.10852846590464327  1.0000
  C   C31       1.0  0.1478873596000414  0.6221733200560968  0.04474010655509586  1.0000
  H   H15       1.0  0.7291320310671862  0.30998310135831386  0.13660372853135083  1.0000
  H   H16       1.0  0.9721732953273552  0.4351103629489841  0.22401328029161105  1.0000
  H   H17       1.0  0.06578291120239177  0.5618680303078438  0.8158827637827915  1.0000
  H   H18       1.0  0.9619699279968303  0.4654629904932701  0.6882895250838059  1.0000
  H   H19       1.0  0.7861910991042976  0.33661182646137755  0.5997275224779988  1.0000
  H   H20       1.0  0.12772410953951807  0.710438206536018  0.979272730571564  1.0000
  H   H21       1.0  0.17920736976771856  0.5571048827678151  0.9759922876380336  1.0000
  H   H22       1.0  0.18633828215287696  0.6524268962144602  0.13162755503330859  1.0000
  Zn  Zn1       1.0  0.824263190308143  0.39123614363942205  0.45392072104549896  1.0000
  Zn  Zn2       1.0  0.9888687773714496  0.38789790398791  0.46266567120966706  1.0000
  C   C32       1.0  0.9058025516040876  0.3865492624802025  0.7215120755590212  1.0000
  C   C33       1.0  0.9073312131522298  0.39258638797087997  0.19507455364192383  1.0000
  C   C34       1.0  0.9065824291585255  0.6266401051176733  0.452550567864612  1.0000
  C   C35       1.0  0.9065512792058816  0.15249398727475993  0.46403613518722286  1.0000
  O   O2        1.0  0.9696408027997797  0.3934894602756931  0.25208757580842955  1.0000
  O   O3        1.0  0.9684247950297685  0.38311156070286057  0.6711358533610261  1.0000
  O   O4        1.0  0.9690537095761108  0.5769879818367525  0.4539474882127361  1.0000
  O   O5        1.0  0.9690118323988973  0.19961304868400598  0.46927582991475725  1.0000
  O   O6        1.0  0.8441200791089088  0.5795210000838549  0.447310559348606  1.0000
  O   O7        1.0  0.8434911647826907  0.38564613814914095  0.6644988476542033  1.0000
  O   O8        1.0  0.8447071776407793  0.39602397829910463  0.24544883739811896  1.0000
  O   O9        1.0  0.8440782069226508  0.2021475583057415  0.46263719955460636  1.0000
