data_image0
_chemical_formula_structural       NC12NC2H8C6OCH8C9H10Zn2C4O8
_chemical_formula_sum              "N2 C34 H26 O9 Zn2"
_cell_length_a       17.80743265337812
_cell_length_b       9.273888216677433
_cell_length_c       10.297187173949778
_cell_angle_alpha    85.76731981656376
_cell_angle_beta     91.50840816747596
_cell_angle_gamma    88.85715842325122

_space_group_name_H-M_alt    "P 1"
_space_group_IT_number       1

loop_
  _space_group_symop_operation_xyz
  'x, y, z'

loop_
  _atom_site_type_symbol
  _atom_site_label
  _atom_site_symmetry_multiplicity
  _atom_site_fract_x
  _atom_site_fract_y
  _atom_site_fract_z
  _atom_site_occupancy
  N   N1        1.0  0.6996386642528332  0.5618909350729908  0.6056208849169102  1.0000
  C   C1        1.0  0.6486652846719166  0.5947043019455616  0.5370046808224571  1.0000
  C   C2        1.0  0.5852493959060727  0.6355217491244873  0.4516547656468324  1.0000
  C   C3        1.0  0.5966956942213089  0.6954901866551155  0.3251856429532034  1.0000
  C   C4        1.0  0.5351952500979579  0.734638300670045  0.242227299335386  1.0000
  C   C5        1.0  0.46209284789160426  0.7141104421003497  0.2850789027132743  1.0000
  C   C6        1.0  0.4496703447356566  0.6540101541890311  0.412015873378782  1.0000
  C   C7        1.0  0.5120280903211596  0.6148656507904044  0.4949577126616387  1.0000
  C   C8        1.0  0.37200545561108667  0.6322455451442281  0.45772471170635853  1.0000
  C   C9        1.0  0.3530302137585313  0.6624583971653639  0.5848818442004231  1.0000
  C   C10       1.0  0.27989761473964264  0.6419767131796994  0.6277741531701193  1.0000
  C   C11       1.0  0.22479854924255563  0.5909999528546901  0.544346635849688  1.0000
  C   C12       1.0  0.14953219286841643  0.5699045966165355  0.5886383508157438  1.0000
  N   N2        1.0  0.0890233727684398  0.5529453489520713  0.6242458425795192  1.0000
  C   C13       1.0  0.2430831393242823  0.5605996171797651  0.41773203030084516  1.0000
  C   C14       1.0  0.3161628618671944  0.5810976757269446  0.3745838326831874  1.0000
  H   H1        1.0  0.6530841976109673  0.711946063691425  0.290790048080632  1.0000
  H   H2        1.0  0.5441741637565154  0.7813702909078288  0.1445658026949861  1.0000
  H   H3        1.0  0.4152983971183546  0.747009428339745  0.21957149513798857  1.0000
  H   H4        1.0  0.5037556136066246  0.5665952422869827  0.592490247901607  1.0000
  H   H5        1.0  0.3944748746072735  0.7037577801646151  0.6505882096755593  1.0000
  H   H6        1.0  0.2663031728657576  0.6662535687595823  0.7258728627936315  1.0000
  H   H7        1.0  0.2009141568033355  0.5207076336317229  0.3524428083537079  1.0000
  H   H8        1.0  0.3292377261379931  0.5551156356277305  0.2767835385110471  1.0000
  C   C15       1.0  0.896541049483179  0.13390508597923945  0.6137119251825855  1.0000
  C   C16       1.0  0.8790262642771877  0.21755438633142088  0.4968513416464455  1.0000
  C   C17       1.0  0.8551182529518916  0.15336383776807838  0.3847811029335326  1.0000
  C   C18       1.0  0.8485861843013499  0.002533657785986243  0.38914766101608955  1.0000
  C   C19       1.0  0.8668878564030897  0.9176708342910699  0.5035472439720527  1.0000
  C   C20       1.0  0.892128217230599  0.9809199630345121  0.6161663101352028  1.0000
  O   O1        1.0  0.8380578436391538  0.24317032277338457  0.27176114627419334  1.0000
  C   C21       1.0  0.813012762994526  0.19280474664698866  0.1510238701931812  1.0000
  H   H9        1.0  0.9025769128064658  0.21049469286929412  0.9336579436037971  1.0000
  H   H10       1.0  0.8822005629306117  0.33435650448504095  0.4931529733734026  1.0000
  H   H11       1.0  0.8300630543168923  0.9495107654982854  0.3042516151866408  1.0000
  H   H12       1.0  0.8629837264319064  0.8012920485125515  0.5029279706273644  1.0000
  H   H13       1.0  0.8993420448431734  0.6818528913590206  0.8309128480737655  1.0000
  H   H14       1.0  0.7590927881542413  0.13592151028062083  0.1634151948504905  1.0000
  H   H15       1.0  0.8561585794227724  0.11919990501745148  0.11413790878012109  1.0000
  H   H16       1.0  0.8038937306273857  0.28668983911464196  0.07877218138350961  1.0000
  C   C22       1.0  0.8944342435553966  0.5573581114551684  0.23349056282165903  1.0000
  C   C23       1.0  0.8180850784539155  0.598720212008637  0.22648140265900873  1.0000
  C   C24       1.0  0.7789691521054826  0.6199109933762901  0.10627399884580391  1.0000
  C   C25       1.0  0.8177891144535477  0.5988799986057771  0.9912450026179194  1.0000
  C   C26       1.0  0.8942350469333094  0.5574669666252925  0.9963876728004109  1.0000
  C   C27       1.0  0.9320583986903831  0.5369750445321435  0.1178763600038073  1.0000
  C   C28       1.0  0.696392028868889  0.664646767318581  0.1081252581145622  1.0000
  C   C29       1.0  0.6440926546321437  0.6078473022042055  0.005169303705508943  1.0000
  C   C30       1.0  0.66560604293519  0.7664416907651255  0.9955995171739378  1.0000
  H   H17       1.0  0.923855979893157  0.541433009170833  0.5637289621220352  1.0000
  H   H18       1.0  0.7886101677150597  0.6146886121682467  0.31519784429816444  1.0000
  H   H19       1.0  0.7891321150242846  0.6144015951742874  0.8973139691240162  1.0000
  H   H20       1.0  0.9909632395542366  0.5050626010573736  0.12255671792601852  1.0000
  H   H21       1.0  0.03861713405518463  0.4792310212594093  0.7988853903356459  1.0000
  H   H22       1.0  0.6698504992881491  0.6790268172837557  0.20297635374139356  1.0000
  H   H23       1.0  0.6698768846301487  0.5421683231618177  0.9316727796621764  1.0000
  H   H24       1.0  0.5857985816466657  0.58967466061587  0.03743817154348372  1.0000
  H   H25       1.0  0.7044588494024807  0.7970999419144587  0.916290816592257  1.0000
  H   H26       1.0  0.6198849257358056  0.8409609362648414  0.022272818252535576  1.0000
  Zn  Zn1       1.0  0.8120067014012987  0.559305582782003  0.611003122715573  1.0000
  Zn  Zn2       1.0  0.9766553916486774  0.5555189386402202  0.6188741659552766  1.0000
  C   C31       1.0  0.8943009489114484  0.5517009981575716  0.8521670515857436  1.0000
  C   C32       1.0  0.8943629325834657  0.5631253016318882  0.3777104558026352  1.0000
  C   C33       1.0  0.8929598341294829  0.8208154724697729  0.6105259390545761  1.0000
  C   C34       1.0  0.8957040001914989  0.2940090958942041  0.6193516298801576  1.0000
  O   O2        1.0  0.9568223526244173  0.5636175197741118  0.4290989710094364  1.0000
  O   O3        1.0  0.9568060808227868  0.5483337166863391  0.8067520989975827  1.0000
  O   O4        1.0  0.9557222710179211  0.7656470776747604  0.6116251550559721  1.0000
  O   O5        1.0  0.9579061062175204  0.3463041703807819  0.6242258149000866  1.0000
  O   O6        1.0  0.8307559306459319  0.768520352335206  0.6056514710779339  1.0000
  O   O7        1.0  0.8318397314382063  0.5512087240660317  0.8007783507803614  1.0000
  O   O8        1.0  0.83185600395943  0.5664924766727935  0.4231236609222333  1.0000
  O   O9        1.0  0.8329397575777719  0.3491791169781371  0.6182506021710155  1.0000
