data_image0
_chemical_formula_structural       NC12NC2H8C7NC2OH7C6NCSNH8Zn2C4O8
_chemical_formula_sum              "N5 C34 H23 O9 S1 Zn2"
_cell_length_a       17.80743265337812
_cell_length_b       10.300333997791364
_cell_length_c       9.275081717742442
_cell_angle_alpha    86.13063687477717
_cell_angle_beta     91.71745222805815
_cell_angle_gamma    89.43519355652523

_space_group_name_H-M_alt    "P 1"
_space_group_IT_number       1

loop_
  _space_group_symop_operation_xyz
  'x, y, z'

loop_
  _atom_site_type_symbol
  _atom_site_label
  _atom_site_symmetry_multiplicity
  _atom_site_fract_x
  _atom_site_fract_y
  _atom_site_fract_z
  _atom_site_occupancy
  N   N1        1.0  0.7049169791667436  0.3926564206405492  0.4478742622484928  1.0000
  C   C1        1.0  0.653974178934328  0.42152865941253603  0.37163741351369883  1.0000
  C   C2        1.0  0.5905963361409718  0.45744366517045587  0.2768083706368185  1.0000
  C   C3        1.0  0.6020963371542192  0.510198965432964  0.13629499640096343  1.0000
  C   C4        1.0  0.5406301383560872  0.5446343550564368  0.04412483133300005  1.0000
  C   C5        1.0  0.46750845411035413  0.526571315228129  0.09173572886243964  1.0000
  C   C6        1.0  0.4550325177994526  0.4737018855087529  0.23276861506893165  1.0000
  C   C7        1.0  0.5173560031365495  0.43926958500545976  0.3249204565976629  1.0000
  C   C8        1.0  0.3773477476985888  0.4545532970023827  0.28355365973572755  1.0000
  C   C9        1.0  0.3587894030283878  0.48300442721223447  0.42453979888370696  1.0000
  C   C10       1.0  0.28563784534414255  0.4649833625041351  0.47219571132688865  1.0000
  C   C11       1.0  0.2301031657598428  0.41826526483099813  0.3797954027804642  1.0000
  C   C12       1.0  0.15481751605898264  0.3997053738295733  0.42900596289180415  1.0000
  N   N2        1.0  0.0942931852824534  0.3847844690251472  0.4685678678629406  1.0000
  C   C13       1.0  0.24797099127825822  0.38965064524025306  0.2394118127549245  1.0000
  C   C14       1.0  0.3210692350526141  0.40768394358527327  0.1914719337447397  1.0000
  H   H1        1.0  0.6585002074668166  0.5246785207338465  0.09807933839611827  1.0000
  H   H2        1.0  0.5496527249435357  0.5857540762614046  0.935616772770004  1.0000
  H   H3        1.0  0.42075137755655717  0.5555511413572349  0.01894787893516936  1.0000
  H   H4        1.0  0.5090315860285599  0.39676339931747684  0.4332903871252929  1.0000
  H   H5        1.0  0.4005831348529382  0.5208351333507397  0.49730930309986254  1.0000
  H   H6        1.0  0.2723700679153144  0.48780464794430145  0.580960050956717  1.0000
  H   H7        1.0  0.2054611121657832  0.35309126047027783  0.16710060285635886  1.0000
  H   H8        1.0  0.3338091726384679  0.38333022878442335  0.0830441870081371  1.0000
  C   C15       1.0  0.89960916726776  0.0073752017093176025  0.45823056384107863  1.0000
  C   C16       1.0  0.8795461943204886  0.015692492761502086  0.3102786856049107  1.0000
  C   C17       1.0  0.8694237947728501  0.9028003773871582  0.2356314544449818  1.0000
  C   C18       1.0  0.8795441145939495  0.780400802680092  0.3102659171525972  1.0000
  C   C19       1.0  0.8996082313659305  0.7700556357271527  0.4582243661331775  1.0000
  C   C20       1.0  0.9095290020483816  0.8841006178083212  0.5313813264321889  1.0000
  C   C21       1.0  0.8483075150935956  0.9132979397105191  0.07990094138715187  1.0000
  N   N3        1.0  0.8374807289866731  0.8097560855670556  5.046596102564749e-05  1.0000
  C   C22       1.0  0.8194876865649243  0.8642522663749304  0.867350342296286  1.0000
  C   C23       1.0  0.8199988401905971  0.9974822777904261  0.8711228371906974  1.0000
  O   O1        1.0  0.8379540239477646  0.024648290536237072  0.0035446128401477317  1.0000
  H   H9        1.0  0.9072457694846575  0.3316342141399118  0.5145965624593871  1.0000
  H   H10       1.0  0.8717581731719395  0.11019114546707454  0.2528435407864753  1.0000
  H   H11       1.0  0.871772113278328  0.6930959931360455  0.2529530368933466  1.0000
  H   H12       1.0  0.9250044391937141  0.8769016226547124  0.6455025969924686  1.0000
  H   H13       1.0  0.9072516602912726  0.43868426405930083  0.5146201898466745  1.0000
  H   H14       1.0  0.8068100019525025  0.8101156924715813  0.7738500110591948  1.0000
  H   H15       1.0  0.8079118132698421  0.06853069754997176  0.7819811209218921  1.0000
  C   C24       1.0  0.8989289355528992  0.3849246894930387  0.035002499712603274  1.0000
  C   C25       1.0  0.8317717194015637  0.41458537254550953  0.10213631473706797  1.0000
  C   C26       1.0  0.7679129838953663  0.4559840302955722  0.020403181345543198  1.0000
  C   C27       1.0  0.7699128410895115  0.47020329441547615  0.8692583831971961  1.0000
  C   C28       1.0  0.835698532563203  0.4364978247735356  0.8009441086342832  1.0000
  C   C29       1.0  0.9002884488885692  0.3925062295019166  0.881452464643655  1.0000
  N   N4        1.0  0.7044150797696416  0.510993432965956  0.7829913932049277  1.0000
  C   C30       1.0  0.6483152161759185  0.5995215212951257  0.8278723808223334  1.0000
  S   S1        1.0  0.5638136561346703  0.5988903331538877  0.7534144068157951  1.0000
  N   N5        1.0  0.6673055964653596  0.6979405986466689  0.9238738628701983  1.0000
  H   H16       1.0  0.003562692716901239  0.2679204969313338  0.3310193404253723  1.0000
  H   H17       1.0  0.8289734984061413  0.40812653024225076  0.21891217470081625  1.0000
  H   H18       1.0  0.7168503871577705  0.4765681658111727  0.07547771519962865  1.0000
  H   H19       1.0  0.8358971608813676  0.4428099454593639  0.683843795196855  1.0000
  H   H20       1.0  0.024227611064679522  0.3804320546389408  0.6085657463662146  1.0000
  H   H21       1.0  0.6974649717332431  0.4748606546141654  0.6808358992374388  1.0000
  H   H22       1.0  0.7229013223120905  0.7117902860894803  0.9576786725269124  1.0000
  H   H23       1.0  0.6261607051500223  0.7617540346592824  0.956418309582268  1.0000
  Zn  Zn1       1.0  0.8172825579504999  0.3903813528021429  0.4538542984896712  1.0000
  Zn  Zn2       1.0  0.9819276228991581  0.38704904935565554  0.4625995873687916  1.0000
  C   C31       1.0  0.9000297939680796  0.3858998068525701  0.7214552219542685  1.0000
  C   C32       1.0  0.8991821850257047  0.39153219870140754  0.19499890084532923  1.0000
  C   C33       1.0  0.8995952982089804  0.6258414770022289  0.45248217493703313  1.0000
  C   C34       1.0  0.8996166247283233  0.15158897017136397  0.46397202172880303  1.0000
  O   O2        1.0  0.9617491219624109  0.3924794819709896  0.2520139462498481  1.0000
  O   O3        1.0  0.9624246510348152  0.382422398993715  0.6710772335883182  1.0000
  O   O4        1.0  0.962072950334821  0.5761783625860424  0.45387955034245087  1.0000
  O   O5        1.0  0.962100766306625  0.19872352783750613  0.46921151844971964  1.0000
  O   O6        1.0  0.8371093583577407  0.5787068754587898  0.44724236441682397  1.0000
  O   O7        1.0  0.8374610589289228  0.38495247138534494  0.6644399708045345  1.0000
  O   O8        1.0  0.8367855271235035  0.3950094935883466  0.24537495070134807  1.0000
  O   O9        1.0  0.8371371716382052  0.20125353113451672  0.4625726309552971  1.0000
