data_image0
_chemical_formula_structural       NC12NC2H8C6NO2H5C6NCOCH9Zn2C4O8
_chemical_formula_sum              "N4 C32 H22 O11 Zn2"
_cell_length_a       17.80743265337812
_cell_length_b       9.273423624067512
_cell_length_c       10.300272075376752
_cell_angle_alpha    85.4769437985097
_cell_angle_beta     91.53227337963534
_cell_angle_gamma    90.04087344610896

_space_group_name_H-M_alt    "P 1"
_space_group_IT_number       1

loop_
  _space_group_symop_operation_xyz
  'x, y, z'

loop_
  _atom_site_type_symbol
  _atom_site_label
  _atom_site_symmetry_multiplicity
  _atom_site_fract_x
  _atom_site_fract_y
  _atom_site_fract_z
  _atom_site_occupancy
  N   N1        1.0  0.7160179461369477  0.5628788579040009  0.6002749188527858  1.0000
  C   C1        1.0  0.6653791853215579  0.5957336757854403  0.5315562792933617  1.0000
  C   C2        1.0  0.6023795389013685  0.6366026830832714  0.446078940912751  1.0000
  C   C3        1.0  0.6144371155740175  0.6966474374061846  0.3194228795871794  1.0000
  C   C4        1.0  0.5533356252856008  0.7358455812997389  0.236342600104666  1.0000
  C   C5        1.0  0.4800238695205598  0.7152918303216937  0.27925830520028216  1.0000
  C   C6        1.0  0.46698878981190906  0.6551149579355007  0.40638257784424137  1.0000
  C   C7        1.0  0.5289476162213707  0.6159204339320619  0.48944634396934217  1.0000
  C   C8        1.0  0.38910200061101274  0.6333227515111679  0.4521593106456856  1.0000
  C   C9        1.0  0.37048079101749615  0.6634735921119035  0.5791743190855996  1.0000
  C   C10       1.0  0.2971393424360807  0.6429660018037513  0.6221305511509001  1.0000
  C   C11       1.0  0.2414745767388686  0.5920248599832341  0.5389098999410604  1.0000
  C   C12       1.0  0.1659931408265568  0.5709027610765087  0.583267424566154  1.0000
  N   N2        1.0  0.10531141122641452  0.5539220141409997  0.618927822886967  1.0000
  C   C13       1.0  0.2594032589857791  0.5616862196926216  0.41243796592942084  1.0000
  C   C14       1.0  0.3326919445840029  0.5822103219048955  0.36922584977023365  1.0000
  H   H1        1.0  0.6709934337155044  0.7131240939972392  0.28497590954944507  1.0000
  H   H2        1.0  0.5627911092447845  0.7826365734585157  0.13853520232009453  1.0000
  H   H3        1.0  0.43356570406333433  0.7482306452729346  0.2136473690671683  1.0000
  H   H4        1.0  0.5201820735157618  0.567590841167465  0.5871304233343659  1.0000
  H   H5        1.0  0.412383305604916  0.7047451096359791  0.6447135627508491  1.0000
  H   H6        1.0  0.2838283916696588  0.6671951745425859  0.7201160838545089  1.0000
  H   H7        1.0  0.21679158576318422  0.5218221109743681  0.34731062825197623  1.0000
  H   H8        1.0  0.3454651404157984  0.5562755302458542  0.2715448763482622  1.0000
  C   C15       1.0  0.9083418634737398  0.13481914081306767  0.6099247851743586  1.0000
  C   C16       1.0  0.8974486423596797  0.21899182599287847  0.49120317082379583  1.0000
  C   C17       1.0  0.8935066934637395  0.15508734099575805  0.3720913238920356  1.0000
  C   C18       1.0  0.9007068520481937  0.004469662542475827  0.3724871719566367  1.0000
  C   C19       1.0  0.9102738488585596  0.9192330109500013  0.4894648402986763  1.0000
  C   C20       1.0  0.912994621891066  0.9819705376068301  0.6092894857817142  1.0000
  N   N3        1.0  0.882975749437165  0.24316802476694988  0.25147357882980725  1.0000
  O   O1        1.0  0.8757678954085969  0.3909416288613643  0.25120079595364286  1.0000
  O   O2        1.0  0.8799894378436859  0.18696146296155458  0.14521841030310023  1.0000
  H   H9        1.0  0.8882890775219895  0.3963895240035835  0.8220973098552355  1.0000
  H   H10       1.0  0.8937909154251668  0.33554550404689576  0.49137466450461287  1.0000
  H   H11       1.0  0.898179068416116  0.9521149137127671  0.28218523131504525  1.0000
  H   H12       1.0  0.9137622693486049  0.8029237466145381  0.4863614551854307  1.0000
  H   H13       1.0  0.8795122925998244  0.8516635523171021  0.9223521540358592  1.0000
  C   C21       1.0  0.9106752097599461  0.5585411567689815  0.22825459633144995  1.0000
  C   C22       1.0  0.8339850117754912  0.5944320075224825  0.22110637979135261  1.0000
  C   C23       1.0  0.7955780870903817  0.6144609176114515  0.10009919279582236  1.0000
  C   C24       1.0  0.8339907981573158  0.5941029699618929  0.9859730312708299  1.0000
  C   C25       1.0  0.9106612990138706  0.5582484234668021  0.9909597207189993  1.0000
  C   C26       1.0  0.9486655201718986  0.541192933190725  0.1125873150586667  1.0000
  N   N4        1.0  0.7167845051132085  0.6489893415392392  0.09130902898232662  1.0000
  C   C27       1.0  0.6799885645248255  0.7396396654953312  0.1769069308318596  1.0000
  O   O3        1.0  0.7176976604816703  0.8159302392426093  0.25089837721204633  1.0000
  C   C28       1.0  0.5963117196433815  0.7521754413718822  0.1717744050999801  1.0000
  H   H14       1.0  0.9395746580805852  0.5428246032564068  0.5585317614011063  1.0000
  H   H15       1.0  0.803794558800336  0.6039853560649173  0.30979398037053474  1.0000
  H   H16       1.0  0.8037669734851228  0.6076144103326135  0.8931426330625722  1.0000
  H   H17       1.0  0.00781912066176349  0.5135503575308493  0.11728910753412758  1.0000
  H   H18       1.0  0.9394528386605098  0.5425561555055478  0.6655785945286006  1.0000
  H   H19       1.0  0.6852024375440653  0.613739569752916  0.012875439968632163  1.0000
  H   H20       1.0  0.5707766256769922  0.64495341552627  0.15828433438228373  1.0000
  H   H21       1.0  0.5759416514391108  0.7911779743997438  0.26380443780041896  1.0000
  H   H22       1.0  0.5786872157665124  0.8296808912695095  0.08898938198939277  1.0000
  Zn  Zn1       1.0  0.8283596130110416  0.5602902523391331  0.6056652335311212  1.0000
  Zn  Zn2       1.0  0.9929696770431332  0.5564988496313461  0.6135481096284332  1.0000
  C   C29       1.0  0.9106306729680163  0.5525575014137687  0.8467963227723616  1.0000
  C   C30       1.0  0.9107004246164465  0.564233379098074  0.3724172325641071  1.0000
  C   C31       1.0  0.9121113802421367  0.8218429263079803  0.604234446884008  1.0000
  C   C32       1.0  0.9092196516530618  0.2949462224643804  0.6149791762978407  1.0000
  O   O4        1.0  0.9731775138183394  0.5646986304810571  0.4237910453417779  1.0000
  O   O5        1.0  0.973088807579238  0.5492135750817844  0.8014050575412481  1.0000
  O   O6        1.0  0.9742836552970854  0.7666649801406378  0.6055345851435838  1.0000
  O   O7        1.0  0.9719826099886784  0.3472472370718398  0.6196614176713249  1.0000
  O   O8        1.0  0.849346623892169  0.7695418661940323  0.5995519227913593  1.0000
  O   O9        1.0  0.8481517856902584  0.5520921941700536  0.7954223246467726  1.0000
  O   O10       1.0  0.8482404917317741  0.5675771999021484  0.41780675115372157  1.0000
  O   O11       1.0  0.8470455878405994  0.35012579613868766  0.613677220854516  1.0000
