data_image0
_chemical_formula_structural       NC12NC2H8C6SCNH5C7N4H6Zn2C4O8
_chemical_formula_sum              "N7 C32 H19 S1 Zn2 O8"
_cell_length_a       17.80743265337812
_cell_length_b       9.27526961838325
_cell_length_c       9.274190830515497
_cell_angle_alpha    85.4175642429384
_cell_angle_beta     91.08905223573423
_cell_angle_gamma    88.87871087483882

_space_group_name_H-M_alt    "P 1"
_space_group_IT_number       1

loop_
  _space_group_symop_operation_xyz
  'x, y, z'

loop_
  _atom_site_type_symbol
  _atom_site_label
  _atom_site_symmetry_multiplicity
  _atom_site_fract_x
  _atom_site_fract_y
  _atom_site_fract_z
  _atom_site_occupancy
  N   N1        1.0  0.7057459098509768  0.5723279004014017  0.4528401180469601  1.0000
  C   C1        1.0  0.6550639482635213  0.6056653964739649  0.3766605550545119  1.0000
  C   C2        1.0  0.5920105471378059  0.647134793940717  0.281902775866423  1.0000
  C   C3        1.0  0.6039938632209092  0.7080693960882571  0.1414928162272584  1.0000
  C   C4        1.0  0.5428456407891413  0.7478513179465627  0.04938968557785839  1.0000
  C   C5        1.0  0.4695612373630931  0.7269961432030807  0.09696465657161091  1.0000
  C   C6        1.0  0.45659974846798346  0.6659260950119783  0.23789412784583375  1.0000
  C   C7        1.0  0.5186053415709403  0.6261479108635672  0.3299789305476495  1.0000
  C   C8        1.0  0.37874075006278196  0.643812313619982  0.2886414111180098  1.0000
  C   C9        1.0  0.3592442975324622  0.6730320970565185  0.42990799270182856  1.0000
  C   C10       1.0  0.2859295379971684  0.6522227702646859  0.4775282234259788  1.0000
  C   C11       1.0  0.23116599101788332  0.6019050116330695  0.38481159367413986  1.0000
  C   C12       1.0  0.1557115422426574  0.5804713098521348  0.4339855396668779  1.0000
  N   N2        1.0  0.09505150878538242  0.5632400556556896  0.47351800926744625  1.0000
  C   C13       1.0  0.2499695025169368  0.5724935832045017  0.24414741391952788  1.0000
  C   C14       1.0  0.32323245042045917  0.593321264531774  0.19624298005979424  1.0000
  H   H1        1.0  0.6605284487172394  0.7247880042852775  0.10330590537041107  1.0000
  H   H2        1.0  0.5522393358431473  0.7953292948177544  0.9409632837547472  1.0000
  H   H3        1.0  0.4230453266511011  0.7603951358373189  0.024238175072619494  1.0000
  H   H4        1.0  0.5099183000660041  0.5771328835213856  0.4382605158169257  1.0000
  H   H5        1.0  0.4004249467402873  0.7138121841343741  0.5029315149787275  1.0000
  H   H6        1.0  0.2719331948366694  0.6757332653872092  0.5865130307178534  1.0000
  H   H7        1.0  0.2080630925074415  0.5331173248607315  0.17158866274228757  1.0000
  H   H8        1.0  0.3367076252654614  0.5681036791433336  0.08758788009093443  1.0000
  C   C15       1.0  0.9025261702462961  0.1443816890263081  0.46138828145883304  1.0000
  C   C16       1.0  0.8762209532950546  0.2288534707802954  0.3373406912896906  1.0000
  C   C17       1.0  0.8441602509982378  0.16443924258567222  0.2207210615390378  1.0000
  C   C18       1.0  0.8379190168317378  0.014448117299906693  0.22574736833802111  1.0000
  C   C19       1.0  0.8646139163553783  0.9284537993511952  0.3472359998261536  1.0000
  C   C20       1.0  0.8982784536371294  0.9911749659259407  0.4649825638759004  1.0000
  S   S1        1.0  0.7958130575105391  0.9322116132831841  0.07645833088468512  1.0000
  C   C21       1.0  0.8825790866325036  0.9145723910197887  0.9900014411084088  1.0000
  N   N3        1.0  0.9394752814203315  0.903020274537882  0.9333513833111442  1.0000
  H   H9        1.0  0.9828880923311013  0.40774328037452934  0.6461446945174956  1.0000
  H   H10       1.0  0.8787977650816312  0.345749546815064  0.33187724044816913  1.0000
  H   H11       1.0  0.8236134256024195  0.23154133185441172  0.12680270057709087  1.0000
  H   H12       1.0  0.8607585702023758  0.8119464452467151  0.3479903582048045  1.0000
  H   H13       1.0  0.021500529232328702  0.862031762507421  0.7343039148480355  1.0000
  C   C22       1.0  0.9020841910083535  0.5706812666392467  0.03950392639938083  1.0000
  C   C23       1.0  0.9510418516061935  0.4750133428976999  0.12217689980894719  1.0000
  C   C24       1.0  0.9940519849545341  0.3720458308526915  0.05710039947134016  1.0000
  C   C25       1.0  0.989273599166297  0.3616077812185743  0.9072894734570074  1.0000
  C   C26       1.0  0.9415601932875154  0.4587378055014977  0.823214882542898  1.0000
  C   C27       1.0  0.8987203980943248  0.5648754182812337  0.8868669589895375  1.0000
  C   C28       1.0  0.034976822092100734  0.25027721978188366  0.840490185685002  1.0000
  N   N4        1.0  0.08491568484156842  0.1596581119059719  0.9138332730699128  1.0000
  N   N5        1.0  0.11299974791381939  0.07831814722090757  0.8158866352308634  1.0000
  N   N6        1.0  0.08186098000403352  0.11652063107023447  0.6873931034083336  1.0000
  N   N7        1.0  0.033016425618595635  0.2235369063931314  0.6999585166999736  1.0000
  H   H14       1.0  0.8461712853932066  0.7856328277387163  0.301638094896  1.0000
  H   H15       1.0  0.9547883246046833  0.4773843963711806  0.2386930796548492  1.0000
  H   H16       1.0  0.0305479858027089  0.2992112624746708  0.12482931573351119  1.0000
  H   H17       1.0  0.9389066317970238  0.45514931336704545  0.7070031252941442  1.0000
  H   H18       1.0  0.7943639045056535  0.70037338070846  0.5922120087665115  1.0000
  H   H19       1.0  0.00037040113058606217  0.2733292306040913  0.6148864145316519  1.0000
  Zn  Zn1       1.0  0.8180910858697568  0.5697014382935706  0.4588156120488356  1.0000
  Zn  Zn2       1.0  0.9827063425523144  0.5658546760939027  0.4675542336866345  1.0000
  C   C29       1.0  0.8993833837746575  0.5602289420387416  0.7266727384329994  1.0000
  C   C30       1.0  0.9014158325530804  0.5753289485949082  0.19969735205865247  1.0000
  C   C31       1.0  0.8991003117320756  0.8311524787393998  0.4585536488429447  1.0000
  C   C32       1.0  0.9016988568081481  0.30440368040572996  0.4678165082345551  1.0000
  O   O1        1.0  0.9636621889145853  0.5754226367079067  0.25677596376512546  1.0000
  O   O2        1.0  0.9620762054023548  0.557214565565533  0.6762261184107807  1.0000
  O   O3        1.0  0.9618467730586908  0.7759887571472412  0.4597180182378413  1.0000
  O   O4        1.0  0.9638915654639091  0.3566484574942064  0.47328395282162816  1.0000
  O   O5        1.0  0.8369058067830764  0.7789076582075996  0.45308588992419696  1.0000
  O   O6        1.0  0.837135230739169  0.5601351994287438  0.6695939205216432  1.0000
  O   O7        1.0  0.8387212214393646  0.5783432322112725  0.2501420310284075  1.0000
  O   O8        1.0  0.8389505976079429  0.3595690419438966  0.4666501282117026  1.0000
