data_image0
_chemical_formula_structural       NC12NC2H8C9NC2H9C12H16Zn2C4O8
_chemical_formula_sum              "N3 C41 H33 Zn2 O8"
_cell_length_a       17.80743265337812
_cell_length_b       9.273595471060368
_cell_length_c       10.298981074953016
_cell_angle_alpha    85.65447616664832
_cell_angle_beta     91.51542336112495
_cell_angle_gamma    88.84631592348521

_space_group_name_H-M_alt    "P 1"
_space_group_IT_number       1

loop_
  _space_group_symop_operation_xyz
  'x, y, z'

loop_
  _atom_site_type_symbol
  _atom_site_label
  _atom_site_symmetry_multiplicity
  _atom_site_fract_x
  _atom_site_fract_y
  _atom_site_fract_z
  _atom_site_occupancy
  N   N1        1.0  0.6993410639138328  0.562256169755267  0.6031372384463154  1.0000
  C   C1        1.0  0.6483586202611427  0.5950795397623652  0.5344754180707794  1.0000
  C   C2        1.0  0.5849314567097381  0.6359094298976617  0.4490687589404474  1.0000
  C   C3        1.0  0.5963611134498383  0.6958962121010215  0.32251644806067103  1.0000
  C   C4        1.0  0.5348497770618859  0.7350563253086086  0.23950386458095818  1.0000
  C   C5        1.0  0.4617530399743013  0.714522213237158  0.28238401764955356  1.0000
  C   C6        1.0  0.4493472285539524  0.6544035290737207  0.40940432773292  1.0000
  C   C7        1.0  0.5117158647663936  0.6152470281137057  0.492400403352546  1.0000
  C   C8        1.0  0.371688365560142  0.6326322734430225  0.4551433898151853  1.0000
  C   C9        1.0  0.3527183885845591  0.6628430575851054  0.5822267582772496  1.0000
  C   C10       1.0  0.2795914517449544  0.6423551260406024  0.6251475298409395  1.0000
  C   C11       1.0  0.22449287918231753  0.591374085355393  0.5418225902440321  1.0000
  C   C12       1.0  0.14923236280872293  0.5702722875982114  0.5861436015317216  1.0000
  N   N2        1.0  0.0887282376715381  0.5533078613897127  0.6217746455791819  1.0000
  C   C13       1.0  0.24277226693640971  0.5609757514886777  0.4152819842503237  1.0000
  C   C14       1.0  0.3158463069271703  0.5814800757201184  0.3721053382634665  1.0000
  H   H1        1.0  0.6527450723143362  0.712357104790124  0.288097974093952  1.0000
  H   H2        1.0  0.5438157861838173  0.7818025582085097  0.14177739233966125  1.0000
  H   H3        1.0  0.41494973658687584  0.7474310338926888  0.2168303260977127  1.0000
  H   H4        1.0  0.5034564782829982  0.5669621062256125  0.590000611230806  1.0000
  H   H5        1.0  0.39416251540105474  0.704146019962715  0.6478503335733952  1.0000
  H   H6        1.0  0.2660009489085943  0.6666305615171626  0.7231876481607555  1.0000
  H   H7        1.0  0.20060366996065782  0.5210804185019382  0.3500730352126864  1.0000
  H   H8        1.0  0.3289174695452025  0.5554991295026455  0.27436655114129915  1.0000
  C   C15       1.0  0.8962982531849749  0.13419240071648342  0.611971253502787  1.0000
  C   C16       1.0  0.8879796651951372  0.21803169842113235  0.49286268750501216  1.0000
  C   C17       1.0  0.8730464937782979  0.153657440394239  0.377162843857783  1.0000
  C   C18       1.0  0.8660555318307378  0.003350858515001498  0.3773512166905544  1.0000
  C   C19       1.0  0.8755290042159423  0.9183174902084413  0.49564926346233706  1.0000
  C   C20       1.0  0.891778272911838  0.9813603646142431  0.6129521407049976  1.0000
  C   C21       1.0  0.8496473174279283  0.9351803908859346  0.2540583970604777  1.0000
  C   C22       1.0  0.8863921645934423  0.8056253789707224  0.22724372497509138  1.0000
  C   C23       1.0  0.8700973354748146  0.7435325747839477  0.11062355817949965  1.0000
  N   N3        1.0  0.8189343972057225  0.8080166112707562  0.023492339732044787  1.0000
  C   C24       1.0  0.7824607436565678  0.933266292219089  0.04647563829090484  1.0000
  C   C25       1.0  0.797091771303805  0.999130696375034  0.16179109311790163  1.0000
  H   H9        1.0  0.9486093317795538  0.3966941843374936  0.8092938909084098  1.0000
  H   H10       1.0  0.8914396408030154  0.33475023907300083  0.48943731848796124  1.0000
  H   H11       1.0  0.8672211756630862  0.22177295941753883  0.2871527723160838  1.0000
  H   H12       1.0  0.8708961084941788  0.8019292312407232  0.49635581804431017  1.0000
  H   H13       1.0  0.9738907802144743  0.8506857082647103  0.903349177124346  1.0000
  H   H14       1.0  0.9280239783651998  0.7539012611426124  0.29484972624356875  1.0000
  H   H15       1.0  0.8983476991088927  0.644068702037017  0.08923792201721503  1.0000
  H   H16       1.0  0.7418939468190761  0.9816977537744368  0.9752715637625498  1.0000
  H   H17       1.0  0.7669162465950651  0.0979885363025077  0.1793578166005103  1.0000
  C   C26       1.0  0.8941106070252107  0.5577445763958093  0.2310769001592532  1.0000
  C   C27       1.0  0.9674530306698398  0.4984712442693109  0.237305282435736  1.0000
  C   C28       1.0  0.004632261883688926  0.4687838583724917  0.12320848205188573  1.0000
  C   C29       1.0  0.9672768985929818  0.4985359909625313  0.002006900037541337  1.0000
  C   C30       1.0  0.8939659199441626  0.5578081739757255  0.9938464616058926  1.0000
  C   C31       1.0  0.8578364081213975  0.5871625783599939  0.10893388451664832  1.0000
  C   C32       1.0  0.08387838133258763  0.40438966948270294  0.12976421455311593  1.0000
  C   C33       1.0  0.0862930933764352  0.2487511712648509  0.19678081770577793  1.0000
  C   C34       1.0  0.1636598327154175  0.20412328695786663  0.2598125618639344  1.0000
  C   C35       1.0  0.22789713833137304  0.2797407354501322  0.1878517738505372  1.0000
  C   C36       1.0  0.22121766242965757  0.44573898937512935  0.18926798983960458  1.0000
  C   C37       1.0  0.13952058531586853  0.5026895177572486  0.19611291659644658  1.0000
  H   H18       1.0  0.7555413497320147  0.6690584734057703  0.4266695551887596  1.0000
  H   H19       1.0  0.9957168200596037  0.47474580913906883  0.3310823125840885  1.0000
  H   H20       1.0  0.9955260523078137  0.4753851095743715  0.9138346426480046  1.0000
  H   H21       1.0  0.8012898995993456  0.6328750227400994  0.10334156458119503  1.0000
  H   H22       1.0  0.8656533224041254  0.580205665484423  0.6632469530663756  1.0000
  H   H23       1.0  0.10343123658312336  0.39678430004870924  0.028575130096052392  1.0000
  H   H24       1.0  0.07146267738709344  0.17214304752523235  0.12261462760147723  1.0000
  H   H25       1.0  0.04374828964567179  0.23633578805756494  0.2736578598858692  1.0000
  H   H26       1.0  0.16544312779656423  0.2323914277814938  0.3628994061503681  1.0000
  H   H27       1.0  0.17183980050102465  0.08494746571382739  0.2602964700758692  1.0000
  H   H28       1.0  0.22700667605406832  0.24936077540562396  0.08539217894971785  1.0000
  H   H29       1.0  0.28260833996266466  0.24122466740556403  0.2336387054657323  1.0000
  H   H30       1.0  0.24699988322906008  0.4955626247149325  0.09998557577303635  1.0000
  H   H31       1.0  0.2539757874557278  0.48097620501045557  0.27420973828031836  1.0000
  H   H32       1.0  0.12535383465014105  0.5082589774698552  0.3001339568485686  1.0000
  H   H33       1.0  0.13512513716836283  0.614429836396533  0.14863100922579853  1.0000
  Zn  Zn1       1.0  0.8117098135003217  0.5596700307437021  0.6085230743399388  1.0000
  Zn  Zn2       1.0  0.9763595463592788  0.5558822350442938  0.6163993895542936  1.0000
  C   C38       1.0  0.8940222697858429  0.5520497800588471  0.8496599834880338  1.0000
  C   C39       1.0  0.8940488783090186  0.5635042644052071  0.37526269599440876  1.0000
  C   C40       1.0  0.8926297790134358  0.8212272667670146  0.6075911694044875  1.0000
  C   C41       1.0  0.8954413221312644  0.29432504595462294  0.617331574625221  1.0000
  O   O1        1.0  0.9565119107040596  0.5639935266040492  0.42664177951990956  1.0000
  O   O2        1.0  0.956524580772045  0.5486845803508746  0.8042584658431273  1.0000
  O   O3        1.0  0.9553992842963855  0.7660488245718322  0.6087861472362446  1.0000
  O   O4        1.0  0.9576371509593328  0.3466292939862099  0.6221139980723625  1.0000
  O   O5        1.0  0.8304321527133878  0.7689229730959448  0.6028084631272408  1.0000
  O   O6        1.0  0.831557439952328  0.5515604619115626  0.7982807144922281  1.0000
  O   O7        1.0  0.8315447704986445  0.5668693577671402  0.4206624666474641  1.0000
  O   O8        1.0  0.8326700107874236  0.34950511484034097  0.6161347825597181  1.0000
