data_image0
_chemical_formula_structural       NC12NC2H8C7N4H6C9NC2H9Zn2C4O8
_chemical_formula_sum              "N7 C36 H23 Zn2 O8"
_cell_length_a       17.80743265337812
_cell_length_b       9.274187458527196
_cell_length_c       9.273598843048156
_cell_angle_alpha    85.47534704697965
_cell_angle_beta     91.13569736745053
_cell_angle_gamma    89.89930755814211

_space_group_name_H-M_alt    "P 1"
_space_group_IT_number       1

loop_
  _space_group_symop_operation_xyz
  'x, y, z'

loop_
  _atom_site_type_symbol
  _atom_site_label
  _atom_site_symmetry_multiplicity
  _atom_site_fract_x
  _atom_site_fract_y
  _atom_site_fract_z
  _atom_site_occupancy
  N   N1        1.0  0.7197111248949611  0.5732481841330319  0.45609677943736693  1.0000
  C   C1        1.0  0.669306804495826  0.606642037725929  0.3799799179243175  1.0000
  C   C2        1.0  0.6065987703277858  0.6481815364089887  0.2853001353590623  1.0000
  C   C3        1.0  0.6190890645753284  0.7092201417077137  0.145004611123559  1.0000
  C   C4        1.0  0.5582716442261363  0.7490703326022221  0.052976127443148835  1.0000
  C   C5        1.0  0.48481352026266356  0.7281799708755727  0.10051186193889494  1.0000
  C   C6        1.0  0.47134401454736413  0.6670055121741245  0.2413266737967097  1.0000
  C   C7        1.0  0.5330188325313864  0.6271590736215547  0.33333683512707624  1.0000
  C   C8        1.0  0.3933009397570019  0.6448541644438268  0.29203239673240655  1.0000
  C   C9        1.0  0.37413636368513153  0.673946629469955  0.43338438274900737  1.0000
  C   C10       1.0  0.3006483292859004  0.6531020657625854  0.4809654851638736  1.0000
  C   C11       1.0  0.2453773420156248  0.602875671201953  0.38812381931269146  1.0000
  C   C12       1.0  0.1697444724841246  0.5814055691497462  0.43725748124646113  1.0000
  N   N2        1.0  0.10894100071100402  0.5641450516475439  0.4767575651629654  1.0000
  C   C13       1.0  0.2638474509896669  0.573591097494621  0.24737389874939497  1.0000
  C   C14       1.0  0.3372837235249779  0.594454252552518  0.19950859226377027  1.0000
  H   H1        1.0  0.6757628930627219  0.7259669986783821  0.10684914724357153  1.0000
  H   H2        1.0  0.5680607730721041  0.7966285159621409  0.9446390322504152  1.0000
  H   H3        1.0  0.4385772921254379  0.7616323724347329  0.02784872353137513  1.0000
  H   H4        1.0  0.5239220001136679  0.578064347901966  0.44152568762069544  1.0000
  H   H5        1.0  0.4157273668477529  0.7146544702062625  0.5065089305829016  1.0000
  H   H6        1.0  0.28691702551089066  0.6765140943524945  0.5900183247339483  1.0000
  H   H7        1.0  0.2215439412579043  0.5342863389765384  0.17471729986855533  1.0000
  H   H8        1.0  0.3504781223210103  0.569335281330527  0.09078172664062767  1.0000
  C   C15       1.0  0.912514865336016  0.14540193081031672  0.4636981862694609  1.0000
  C   C16       1.0  0.9517948231968162  0.22701161029980677  0.3559430294920878  1.0000
  C   C17       1.0  0.9959758955259838  0.15968953577982137  0.2583236534389117  1.0000
  C   C18       1.0  0.0022515254094357395  0.008611660655371445  0.26575297676719933  1.0000
  C   C19       1.0  0.9619795199522365  0.925843262715939  0.3713775292139385  1.0000
  C   C20       1.0  0.9161443281804015  0.9919799322575703  0.4691688608889406  1.0000
  C   C21       1.0  0.050178388077350755  0.939293373166167  0.16172217458264626  1.0000
  N   N3        1.0  0.08668430833402074  0.012034754576563778  0.05289507015992401  1.0000
  N   N4        1.0  0.12274410407697411  0.9116440859448203  0.98695070112512  1.0000
  N   N5        1.0  0.10933748575288615  0.7822573128760555  0.0519508033000029  1.0000
  N   N6        1.0  0.06423386080406224  0.7966854539995456  0.1612634648887996  1.0000
  H   H9        1.0  0.8136231643316958  0.4160760891527451  0.6032649906441829  1.0000
  H   H10       1.0  0.9498459848490555  0.3441182297323053  0.3492102810338822  1.0000
  H   H11       1.0  0.02603348475262801  0.22652058795577323  0.17775937313500445  1.0000
  H   H12       1.0  0.964335750421452  0.8090809624194253  0.375848065925809  1.0000
  H   H13       1.0  0.8673960785342939  0.6948488315244862  0.6881722677432176  1.0000
  H   H14       1.0  0.04519874585570216  0.7113518658012686  0.23093081173936447  1.0000
  C   C22       1.0  0.9158581994361079  0.5719530674938098  0.04269644553670249  1.0000
  C   C23       1.0  0.8660495917588443  0.6641495810345284  0.1070217779597673  1.0000
  C   C24       1.0  0.8124881799077721  0.7450980251566948  0.023909498024351272  1.0000
  C   C25       1.0  0.8072741351903214  0.7361522250137762  0.8738557999591636  1.0000
  C   C26       1.0  0.8576592318903189  0.6461052307381856  0.8081651550299025  1.0000
  C   C27       1.0  0.9128009940607834  0.5654288365795257  0.8901706248749601  1.0000
  C   C28       1.0  0.7498235066207238  0.8217909414358349  0.785733153675165  1.0000
  C   C29       1.0  0.7677924135656191  0.8910663096394829  0.6505609890319501  1.0000
  C   C30       1.0  0.7128656655567222  0.9710969376498348  0.5696203929346746  1.0000
  N   N7        1.0  0.6423654615462355  0.9819056035082276  0.6212583688375326  1.0000
  C   C31       1.0  0.6232014667149814  0.9162729394616544  0.7514804723291615  1.0000
  C   C32       1.0  0.67639423330806  0.835276210042903  0.8360287248057641  1.0000
  H   H15       1.0  0.027490204872175905  0.4676236792115436  0.336304660101586  1.0000
  H   H16       1.0  0.8674125761575313  0.6714487290487965  0.22306195624039127  1.0000
  H   H17       1.0  0.7751962728279076  0.8153499346345239  0.07726380599816451  1.0000
  H   H18       1.0  0.854416447944229  0.6396754707527728  0.6920410061229552  1.0000
  H   H19       1.0  0.08096258302838644  0.41833021687747074  0.8051125060622284  1.0000
  H   H20       1.0  0.8239556861324876  0.8851094953621861  0.608742920820164  1.0000
  H   H21       1.0  0.7263992944889238  0.02502089341004865  0.4657100157513585  1.0000
  H   H22       1.0  0.5665282969251819  0.9266685513029265  0.7893747048324453  1.0000
  H   H23       1.0  0.6600103672121496  0.7822245209263985  0.9387599871804415  1.0000
  Zn  Zn1       1.0  0.8320344160579451  0.5706173042410343  0.462067329724162  1.0000
  Zn  Zn2       1.0  0.9966176141857521  0.5667640828826757  0.4707987087800507  1.0000
  C   C33       1.0  0.91335259851218  0.5609196525246649  0.7299426748678695  1.0000
  C   C34       1.0  0.9153012362614975  0.576463510192289  0.20292361236317502  1.0000
  C   C35       1.0  0.9154751826161168  0.832003062308537  0.46238450748347404  1.0000
  C   C36       1.0  0.9131785882944952  0.3053783692971499  0.4704818425074848  1.0000
  O   O1        1.0  0.9775727533283254  0.5765086899384695  0.260010785453227  1.0000
  O   O2        1.0  0.9759959174647411  0.557948882694802  0.6794819940452899  1.0000
  O   O3        1.0  0.9777090835898687  0.7768521725743605  0.46342684588109617  1.0000
  O   O4        1.0  0.9758595314766026  0.3576054125182069  0.47606582251211993  1.0000
  O   O5        1.0  0.8527924426029605  0.7797759759220464  0.4568002130049216  1.0000
  O   O6        1.0  0.8510792841767645  0.5608744184702978  0.6728552954220306  1.0000
  O   O7        1.0  0.852656126133294  0.5794341888373806  0.25338235164350364  1.0000
  O   O8        1.0  0.8509429038440324  0.3605309002743655  0.46943749682052704  1.0000
