data_image0
_chemical_formula_structural       NC12NC2H8C6NCOCH9C7F3H5Zn2C4O8
_chemical_formula_sum              "N3 C33 H22 O9 F3 Zn2"
_cell_length_a       17.80743265337812
_cell_length_b       10.300268703208216
_cell_length_c       10.299327507215196
_cell_angle_alpha    85.55248545711716
_cell_angle_beta     91.5153373633688
_cell_angle_gamma    89.41550465668445

_space_group_name_H-M_alt    "P 1"
_space_group_IT_number       1

loop_
  _space_group_symop_operation_xyz
  'x, y, z'

loop_
  _atom_site_type_symbol
  _atom_site_label
  _atom_site_symmetry_multiplicity
  _atom_site_fract_x
  _atom_site_fract_y
  _atom_site_fract_z
  _atom_site_occupancy
  N   N1        1.0  0.7073939268458808  0.4067611313943904  0.6013316056353906  1.0000
  C   C1        1.0  0.6565806514792781  0.43632575071809887  0.5326325318197627  1.0000
  C   C2        1.0  0.593363921000651  0.4731019907395382  0.4471795320499661  1.0000
  C   C3        1.0  0.6051027428108903  0.5271334240719172  0.3205591567272479  1.0000
  C   C4        1.0  0.5437932329583984  0.5624058952110396  0.23750214684965787  1.0000
  C   C5        1.0  0.4705906651151831  0.5439104544462099  0.28040560674801474  1.0000
  C   C6        1.0  0.45787500893403976  0.48976017432409225  0.4074941276400428  1.0000
  C   C7        1.0  0.5200418372226505  0.4544909586789556  0.49053462571335715  1.0000
  C   C8        1.0  0.3801039392406693  0.4701503585914384  0.4532578959590381  1.0000
  C   C9        1.0  0.36128978297360537  0.49732190704364765  0.5803036688054266  1.0000
  C   C10       1.0  0.2880572534727542  0.478868033187841  0.6232476924003729  1.0000
  C   C11       1.0  0.23269581261870484  0.4329882637418605  0.539983916585403  1.0000
  C   C12       1.0  0.15732653985195494  0.4139814448523036  0.5843288746038764  1.0000
  N   N2        1.0  0.09673498188897471  0.39870124077117475  0.6199791702135509  1.0000
  C   C13       1.0  0.2508184131450467  0.4056477542492407  0.41348111645530294  1.0000
  C   C14       1.0  0.3239981301465429  0.42411643972747903  0.3702812036835057  1.0000
  H   H1        1.0  0.6615715394392877  0.5419600527900004  0.2861219999242015  1.0000
  H   H2        1.0  0.5530001674123193  0.6045110833014629  0.13972261813622233  1.0000
  H   H3        1.0  0.4239569724460743  0.5735513521113209  0.21481450764114896  1.0000
  H   H4        1.0  0.5115335930976694  0.41100054564235355  0.5881896945661036  1.0000
  H   H5        1.0  0.4029468748405853  0.5344924018190638  0.6458777241905551  1.0000
  H   H6        1.0  0.2745919555814456  0.5007021890523609  0.7212576721561379  1.0000
  H   H7        1.0  0.2084441079694348  0.369744433629307  0.3483200313277597  1.0000
  H   H8        1.0  0.3369352957762276  0.40074678299038213  0.27257454759822886  1.0000
  C   C15       1.0  0.9021443721766809  0.021381897585740495  0.6106668697130087  1.0000
  C   C16       1.0  0.9148351916200742  0.03052409340022333  0.47627309801772166  1.0000
  C   C17       1.0  0.9222548664946254  0.9178092162436078  0.4088784947084916  1.0000
  C   C18       1.0  0.9146652325387669  0.7953680884002039  0.4762973571645799  1.0000
  C   C19       1.0  0.901991714338579  0.7840703787430037  0.6106554268086262  1.0000
  C   C20       1.0  0.8960809947887749  0.8976728676115102  0.677223302573261  1.0000
  N   N3        1.0  0.934078368043065  0.9256032204729565  0.2709005633342745  1.0000
  C   C21       1.0  0.9781952524574609  0.02380734336894652  0.20322995288283052  1.0000
  O   O1        1.0  0.020603720160087047  0.0959164958319243  0.26523317273318137  1.0000
  C   C22       1.0  0.9782537662870533  0.03471240042601487  0.05774861825847277  1.0000
  H   H9        1.0  0.8962269715859745  0.3453773862712639  0.6614061389576367  1.0000
  H   H10       1.0  0.917461524903434  0.12532633432115214  0.42356519595387376  1.0000
  H   H11       1.0  0.9193388011212278  0.7089165190529637  0.4233598386250952  1.0000
  H   H12       1.0  0.8863134185310502  0.8898120259458855  0.7808838291889006  1.0000
  H   H13       1.0  0.896078673901666  0.4524285314867141  0.661206855095539  1.0000
  H   H14       1.0  0.9133951380815454  0.8506146367618272  0.21772777128160525  1.0000
  H   H15       1.0  0.9207624946359992  0.018872620223759462  0.01817502630178014  1.0000
  H   H16       1.0  0.9968862036815425  0.1329919022068038  0.020771934003462666  1.0000
  H   H17       1.0  0.017037140490821612  0.960189008291115  0.023855699770618077  1.0000
  C   C23       1.0  0.9021399822439349  0.4027773843826765  0.22928301890806435  1.0000
  C   C24       1.0  0.975135876561689  0.4533359770592347  0.22750841052563264  1.0000
  C   C25       1.0  0.011410406162629672  0.48105633208136767  0.1092906349983278  1.0000
  C   C26       1.0  0.9749469939799584  0.45320217937622176  0.9922619070637282  1.0000
  C   C27       1.0  0.9019961411087053  0.40267489026415393  0.9920393064906432  1.0000
  C   C28       1.0  0.8659040309353205  0.37823925568938854  0.11103836795737032  1.0000
  C   C29       1.0  0.09080371654674924  0.5309088822918322  0.10883057173696598  1.0000
  F   F1        1.0  0.10391135016618458  0.6064718443703652  0.21234911658811728  1.0000
  F   F2        1.0  0.14044829379956858  0.4263427653945506  0.11907781976401988  1.0000
  F   F3        1.0  0.10370496742628887  0.6064584976181011  0.9946958282971354  1.0000
  H   H18       1.0  0.7648982461062084  0.30518568612783525  0.4400624485161557  1.0000
  H   H19       1.0  0.003942776022701544  0.47100448622040103  0.31828455126977806  1.0000
  H   H20       1.0  0.0036243369865336383  0.4707754195908025  0.9012552803085332  1.0000
  H   H21       1.0  0.8096420079137674  0.3392741419971752  0.11160117786077017  1.0000
  H   H22       1.0  0.874440821444219  0.3811079162911235  0.66468813231453  1.0000
  Zn  Zn1       1.0  0.8197493477220579  0.4044317529564381  0.6067203771284571  1.0000
  Zn  Zn2       1.0  0.9843795586409235  0.4010200248732618  0.6146009921864024  1.0000
  C   C30       1.0  0.9020226689855914  0.3975208698676871  0.8478620207316492  1.0000
  C   C31       1.0  0.9021080347821941  0.40793250922387814  0.373459562084262  1.0000
  C   C32       1.0  0.9020176894984784  0.6399067778999157  0.6054821193871809  1.0000
  C   C33       1.0  0.9021129583917276  0.1655450421245248  0.615839530003311  1.0000
  O   O2        1.0  0.964573621122232  0.40836221773720904  0.42483717947239374  1.0000
  O   O3        1.0  0.96450760371578  0.3945007590595786  0.8024652339870828  1.0000
  O   O4        1.0  0.9645027402517544  0.5902304624559125  0.6067417084371682  1.0000
  O   O5        1.0  0.9645784284256257  0.2126325248078973  0.620560604956027  1.0000
  O   O6        1.0  0.8395504217571456  0.5928192541874726  0.6007607616627335  1.0000
  O   O7        1.0  0.8395552849185406  0.39709111102393324  0.79648421794197  1.0000
  O   O8        1.0  0.8396213026785218  0.41095252465675913  0.41885460199190905  1.0000
  O   O9        1.0  0.8396261099623371  0.21522282242609547  0.6145781248457256  1.0000
