data_image0
_chemical_formula_structural       NC12NC2H8C9H10C6NO2H5Zn2C4O8
_chemical_formula_sum              "N3 C33 H23 O10 Zn2"
_cell_length_a       17.80743265337812
_cell_length_b       10.297183801781406
_cell_length_c       9.27342699604674
_cell_angle_alpha    85.1257660928522
_cell_angle_beta     91.97882923782456
_cell_angle_gamma    89.4353606467078

_space_group_name_H-M_alt    "P 1"
_space_group_IT_number       1

loop_
  _space_group_symop_operation_xyz
  'x, y, z'

loop_
  _atom_site_type_symbol
  _atom_site_label
  _atom_site_symmetry_multiplicity
  _atom_site_fract_x
  _atom_site_fract_y
  _atom_site_fract_z
  _atom_site_occupancy
  N   N1        1.0  0.7010420802059665  0.4171851027837665  0.4446028998988285  1.0000
  C   C1        1.0  0.6499092601310835  0.447248489555667  0.36822561923861086  1.0000
  C   C2        1.0  0.5862950565618251  0.48464513402349363  0.27322189591763  1.0000
  C   C3        1.0  0.5974448324777498  0.5395956998837101  0.13244992474132133  1.0000
  C   C4        1.0  0.5357489038011666  0.5754710219546786  0.04011021912184587  1.0000
  C   C5        1.0  0.46274588965096525  0.5566640837739476  0.08780883457196409  1.0000
  C   C6        1.0  0.45062147267742364  0.5015912999579242  0.2291012323639614  1.0000
  C   C7        1.0  0.5131746422515033  0.46571935197080716  0.3214225826636674  1.0000
  C   C8        1.0  0.37306328330982  0.4816492594766524  0.27997978217713126  1.0000
  C   C9        1.0  0.3548557115350748  0.5079258278108874  0.4211837000556682  1.0000
  C   C10       1.0  0.2818229356884329  0.4891601817954101  0.4689273831050582  1.0000
  C   C11       1.0  0.2260585820377588  0.44385757204340504  0.3763987249502194  1.0000
  C   C12       1.0  0.1508955887365801  0.42452882667973824  0.42569989381866535  1.0000
  N   N2        1.0  0.09046986526767892  0.408989815850032  0.46533464201221264  1.0000
  C   C13       1.0  0.24357713600909123  0.41740812224884793  0.2357984329730134  1.0000
  C   C14       1.0  0.3165558908994964  0.4361904057860768  0.1877703090981495  1.0000
  H   H1        1.0  0.6537534504636862  0.554672350674924  0.09416386827789558  1.0000
  H   H2        1.0  0.5445010345686289  0.6182861153861372  0.931402270300782  1.0000
  H   H3        1.0  0.41580737890763636  0.5867816576537221  0.014886181740528581  1.0000
  H   H4        1.0  0.505120347827754  0.4215194556151016  0.42999288601253527  1.0000
  H   H5        1.0  0.3968303142361111  0.5446421302180517  0.4940537537748104  1.0000
  H   H6        1.0  0.2688257566989045  0.5103041936508774  0.5778592820829924  1.0000
  H   H7        1.0  0.20088751712088662  0.38195647938357036  0.16338677764036835  1.0000
  H   H8        1.0  0.32902607988705074  0.4135082206158682  0.07917634271110474  1.0000
  C   C15       1.0  0.8957630360468181  0.03161044700953952  0.4551736264785611  1.0000
  C   C16       1.0  0.8929513211785798  0.04250742237954119  0.3031481656606809  1.0000
  C   C17       1.0  0.8915106236180804  0.9314737777882598  0.2252610671357671  1.0000
  C   C18       1.0  0.892940110674499  0.8073403553570195  0.3025589208378672  1.0000
  C   C19       1.0  0.8957561656860219  0.7945542712623608  0.4547767133713163  1.0000
  C   C20       1.0  0.8971485324235066  0.9071722383708074  0.5300903852532399  1.0000
  C   C21       1.0  0.8884693475428943  0.9526918252868879  0.06083478544563059  1.0000
  C   C22       1.0  0.8441408754127324  0.855425048449921  0.9781317292682226  1.0000
  C   C23       1.0  0.9297300718850607  0.8539616098772367  0.9781032746149037  1.0000
  H   H9        1.0  0.8968536150850609  0.35494979671187843  0.5137542926209746  1.0000
  H   H10       1.0  0.8918660019081577  0.1381366180970245  0.24445795870142772  1.0000
  H   H11       1.0  0.8918831074995501  0.7201299040823157  0.2454984325198355  1.0000
  H   H12       1.0  0.8993174528576489  0.8980375581046348  0.6473812006495352  1.0000
  H   H13       1.0  0.9010649187963128  0.5631887188053474  0.7422727310088353  1.0000
  H   H14       1.0  0.8874925178233959  0.05376787215385925  0.007985324714551156  1.0000
  H   H15       1.0  0.8193347371589834  0.7718866919332319  0.042492641672869036  1.0000
  H   H16       1.0  0.8172131254280328  0.8975221366042803  0.8745842323480728  1.0000
  H   H17       1.0  0.9569147774127854  0.7695350878126008  0.042447655950538676  1.0000
  H   H18       1.0  0.9528254351774446  0.8952010239495038  0.8745378152516476  1.0000
  C   C24       1.0  0.8940262278260052  0.4158475699977049  0.031054663429963103  1.0000
  C   C25       1.0  0.9376420990626073  0.5077836803427913  0.09906109323164114  1.0000
  C   C26       1.0  0.9861968334362059  0.5910901000788482  0.020088277556995715  1.0000
  C   C27       1.0  0.9909681327223432  0.5816255458923387  0.8707048194266451  1.0000
  C   C28       1.0  0.947192513815742  0.4925307363206326  0.8012048606459832  1.0000
  C   C29       1.0  0.8974929403762641  0.4103170921300139  0.8788957574822542  1.0000
  N   N3        1.0  0.030877327127757148  0.6838089130326417  0.09183293344132903  1.0000
  O   O1        1.0  0.026047738267641618  0.6932023125673057  0.23838596390300282  1.0000
  O   O2        1.0  0.07455502594549923  0.7574455662184807  0.022271858100751052  1.0000
  H   H19       1.0  0.7889541973621217  0.3020657591440581  0.3150052458467465  1.0000
  H   H20       1.0  0.9350578684055315  0.5123468806287981  0.2150327966347796  1.0000
  H   H21       1.0  0.0280949790866587  0.644193400444325  0.8070023490814102  1.0000
  H   H22       1.0  0.9509222996109276  0.49011047780342976  0.68509472066857  1.0000
  H   H23       1.0  0.7397854055760948  0.2474091527162865  0.7809697216802363  1.0000
  Zn  Zn1       1.0  0.8134225642705772  0.41481659745483035  0.45059395694078397  1.0000
  Zn  Zn2       1.0  0.978089426951413  0.41134764791253  0.45935536546352074  1.0000
  C   C30       1.0  0.8968360433359385  0.40618740494039574  0.7186381964844657  1.0000
  C   C31       1.0  0.8946777466076339  0.41997844070548895  0.19131136243013902  1.0000
  C   C32       1.0  0.8957300642283865  0.6503792502744044  0.44909895947071776  1.0000
  C   C33       1.0  0.895783669854674  0.17578503530876488  0.4608506742301284  1.0000
  O   O3        1.0  0.9573866185323873  0.42004268303254566  0.24841988639969514  1.0000
  O   O4        1.0  0.9591055083637642  0.403489332887508  0.6681789638100013  1.0000
  O   O5        1.0  0.9582115799870352  0.6006773441771716  0.4505240773619126  1.0000
  O   O6        1.0  0.958280490276807  0.2228546829254927  0.4660746616139333  1.0000
  O   O7        1.0  0.8332314447524334  0.6033095636271137  0.44387465779293844  1.0000
  O   O8        1.0  0.8341253727969244  0.4061231135854124  0.661529466457353  1.0000
  O   O9        1.0  0.8324064759191829  0.4226764297819521  0.24176865345777387  1.0000
  O   O10       1.0  0.833300348103162  0.22548841967753463  0.4594235369084303  1.0000
