data_image0
_chemical_formula_structural       NC12NC2H8C6NO2H5C6NCSNH8Zn2C4O8
_chemical_formula_sum              "N5 C31 H21 O10 S1 Zn2"
_cell_length_a       17.80743265337812
_cell_length_b       9.273423624067512
_cell_length_c       9.275081717742442
_cell_angle_alpha    86.0651322329372
_cell_angle_beta     91.71745222805815
_cell_angle_gamma    90.04087344610896

_space_group_name_H-M_alt    "P 1"
_space_group_IT_number       1

loop_
  _space_group_symop_operation_xyz
  'x, y, z'

loop_
  _atom_site_type_symbol
  _atom_site_label
  _atom_site_symmetry_multiplicity
  _atom_site_fract_x
  _atom_site_fract_y
  _atom_site_fract_z
  _atom_site_occupancy
  N   N1        1.0  0.7134125202981555  0.5468871718009272  0.44659818306941657  1.0000
  C   C1        1.0  0.6626458477081418  0.5789568877162266  0.37033487894892647  1.0000
  C   C2        1.0  0.5994870951398614  0.6188493269845776  0.2754729274591359  1.0000
  C   C3        1.0  0.6113089162493203  0.6774470514563791  0.13491121399240247  1.0000
  C   C4        1.0  0.550052781659838  0.7156960134221857  0.042709496071150266  1.0000
  C   C5        1.0  0.47682090850064024  0.695632569072224  0.09033694460965092  1.0000
  C   C6        1.0  0.46402245587622565  0.6369080757936036  0.23141827462286657  1.0000
  C   C7        1.0  0.5261358958490537  0.5986625450548444  0.32360166617435193  1.0000
  C   C8        1.0  0.38622087475230327  0.615638862885387  0.28222086497770116  1.0000
  C   C9        1.0  0.3678360888603841  0.6472408342636646  0.42318093459816164  1.0000
  C   C10       1.0  0.2945745983210639  0.6272240135992173  0.47085335958895946  1.0000
  C   C11       1.0  0.2387549270371022  0.575332086121312  0.37849585843626343  1.0000
  C   C12       1.0  0.163356057510404  0.5547167664526442  0.427723424817148  1.0000
  N   N2        1.0  0.10274070560432332  0.5381434351617769  0.4672990016858696  1.0000
  C   C13       1.0  0.2564481964524545  0.5435485196113989  0.2381384877421655  1.0000
  C   C14       1.0  0.32965644771003066  0.5635789287358115  0.1901820849747875  1.0000
  H   H1        1.0  0.6678011153527093  0.6935301556709956  0.09668228849475136  1.0000
  H   H2        1.0  0.5593262084959157  0.761369568146286  0.9341637598589503  1.0000
  H   H3        1.0  0.4302406158981553  0.7278217871849846  0.01752254071530701  1.0000
  H   H4        1.0  0.5175521807236207  0.5514489808272178  0.4320105447567455  1.0000
  H   H5        1.0  0.4098605971458524  0.6892611295486339  0.4959157748615164  1.0000
  H   H6        1.0  0.281446036255232  0.6525726589421679  0.5795967882699291  1.0000
  H   H7        1.0  0.21371529624701702  0.5029403391072675  0.16586077689549295  1.0000
  H   H8        1.0  0.342247821743003  0.5365281440248162  0.08177665333897344  1.0000
  C   C15       1.0  0.9057543997415023  0.11893770324038733  0.45730751455098306  1.0000
  C   C16       1.0  0.894640192116721  0.20175400864540127  0.32555137620276997  1.0000
  C   C17       1.0  0.8904765303373849  0.13648868551445958  0.19336216138202533  1.0000
  C   C18       1.0  0.897677425747084  0.985875529576405  0.193801469865571  1.0000
  C   C19       1.0  0.9074621629150137  0.9019753333910607  0.32362219322782915  1.0000
  C   C20       1.0  0.9104059756227183  0.9660818418170858  0.4566024652208531  1.0000
  N   N3        1.0  0.8797210703727634  0.22319132645175888  0.05950171488622513  1.0000
  O   O1        1.0  0.8725127085905201  0.37096181403551776  0.0591989829989652  1.0000
  O   O2        1.0  0.8765369771110741  0.16577081247475878  0.9415807216349141  1.0000
  H   H9        1.0  0.8860965483276344  0.38293213130949644  0.6927746000388646  1.0000
  H   H10       1.0  0.8909827843977974  0.31830964599353195  0.3257416982874144  1.0000
  H   H11       1.0  0.8949815555295695  0.9324890922325098  0.09358521986450907  1.0000
  H   H12       1.0  0.9109448068137337  0.7856306132641311  0.32017808542517434  1.0000
  H   H13       1.0  0.8775063761660826  0.8393515588303612  0.8040364893940459  1.0000
  C   C21       1.0  0.9073773112535506  0.5382991844476672  0.03373350505271566  1.0000
  C   C22       1.0  0.8404010324454991  0.5712446614804139  0.10084014224672666  1.0000
  C   C23       1.0  0.7767948387683477  0.6172280437807622  0.019069075618824094  1.0000
  C   C24       1.0  0.7788814369141006  0.6330220306776966  0.8679112484802562  1.0000
  C   C25       1.0  0.8444615168676406  0.5955838242142084  0.7996278579511902  1.0000
  C   C26       1.0  0.9087830738176953  0.5467203476350915  0.8801765230834344  1.0000
  N   N4        1.0  0.7136325053089223  0.6783295028758269  0.7816068828325546  1.0000
  C   C27       1.0  0.658072684474159  0.7766616989227642  0.8264067529190262  1.0000
  S   S1        1.0  0.5735672740325277  0.7759606093904128  0.75194935726479  1.0000
  N   N5        1.0  0.6776634449488085  0.8859802687862206  0.9223180544072291  1.0000
  H   H14       1.0  0.011297314532729974  0.40833727723340996  0.32985755570742015  1.0000
  H   H15       1.0  0.8375634109492531  0.5640705299749551  0.21762192039249206  1.0000
  H   H16       1.0  0.7258578102379101  0.6400917843988885  0.07412474840541261  1.0000
  H   H17       1.0  0.8446986506492621  0.6025949853096892  0.6825217607715093  1.0000
  H   H18       1.0  0.03264858060568887  0.5333090094695534  0.6073008682692578  1.0000
  H   H19       1.0  0.7064619785819335  0.6381951736288449  0.6794844970211433  1.0000
  H   H20       1.0  0.7333436572399945  0.9013637499673748  0.9561101737136739  1.0000
  H   H21       1.0  0.6369078310333716  0.9568607703179972  0.9548040294131157  1.0000
  Zn  Zn1       1.0  0.8257642206176247  0.544360149915236  0.45258030393581605  1.0000
  Zn  Zn2       1.0  0.9903889577089793  0.5406588080928585  0.461328646176113  1.0000
  C   C28       1.0  0.9084841181205625  0.5393822918904669  0.7201853338026767  1.0000
  C   C29       1.0  0.9076708681312725  0.5456384470830853  0.19372385178120965  1.0000
  C   C30       1.0  0.9095133246053798  0.8058964773234265  0.4509924302831956  1.0000
  C   C31       1.0  0.9066415960834773  0.27912253068576853  0.4629168305948592  1.0000
  O   O3        1.0  0.9702435837251268  0.5466906379293415  0.2507380291981627  1.0000
  O   O4        1.0  0.9708577621579697  0.5355197759617301  0.6698105317558347  1.0000
  O   O5        1.0  0.971688019716853  0.7507333850750559  0.4524353115760207  1.0000
  O   O6        1.0  0.9694132698681645  0.3314770393223858  0.46811313832331436  1.0000
  O   O7        1.0  0.8467398522800923  0.7535419199502895  0.44579580879565306  1.0000
  O   O8        1.0  0.8459096041058395  0.5383300430659017  0.6631709506883365  1.0000
  O   O9        1.0  0.8452954225692438  0.5495008375287496  0.2440967154216349  1.0000
  O   O10       1.0  0.8444651088320131  0.33428722968000457  0.46147193260848773  1.0000
