data_image0
_chemical_formula_structural       NC12NC2H8C12H16C7N4H6Zn2C4O8
_chemical_formula_sum              "N6 C37 H30 Zn2 O8"
_cell_length_a       17.80743265337812
_cell_length_b       10.298977702784466
_cell_length_c       9.274190830515497
_cell_angle_alpha    85.14521916801453
_cell_angle_beta     91.08905223573423
_cell_angle_gamma    89.4320624770977

_space_group_name_H-M_alt    "P 1"
_space_group_IT_number       1

loop_
  _space_group_symop_operation_xyz
  'x, y, z'

loop_
  _atom_site_type_symbol
  _atom_site_label
  _atom_site_symmetry_multiplicity
  _atom_site_fract_x
  _atom_site_fract_y
  _atom_site_fract_z
  _atom_site_occupancy
  N   N1        1.0  0.7135813529383107  0.4163733426280827  0.44564544276605966  1.0000
  C   C1        1.0  0.6630655233981745  0.44640419098680795  0.36931333369282315  1.0000
  C   C2        1.0  0.6002187783418662  0.48376036147246904  0.2743657983802059  1.0000
  C   C3        1.0  0.6125057522097451  0.53865104051174  0.13367701351908212  1.0000
  C   C4        1.0  0.551555776584223  0.5744871111075949  0.04139184831458209  1.0000
  C   C5        1.0  0.4781674447506605  0.5557004995140606  0.0890622486460495  1.0000
  C   C6        1.0  0.4649016230972121  0.5006878089240079  0.23027116491772603  1.0000
  C   C7        1.0  0.5267089880201993  0.4648551053056491  0.3225379850715875  1.0000
  C   C8        1.0  0.38693242422078666  0.4807674281558918  0.2811196366737465  1.0000
  C   C9        1.0  0.36758158377944833  0.5070889876259679  0.42225251405149566  1.0000
  C   C10       1.0  0.2941631243125299  0.48834367646125276  0.4699679643218  1.0000
  C   C11       1.0  0.2391488268797678  0.4430167876052953  0.37748157912271907  1.0000
  C   C12       1.0  0.16358756670062763  0.42370903136144444  0.4267536016835465  1.0000
  N   N2        1.0  0.10284166406075711  0.4081868943455822  0.46636491824637605  1.0000
  C   C13       1.0  0.2578057712578598  0.4165225918435822  0.23695198050543698  1.0000
  C   C14       1.0  0.3311725105598806  0.4352844370116107  0.18895224311266423  1.0000
  H   H1        1.0  0.6691236521998228  0.553711379369848  0.09541360147116928  1.0000
  H   H2        1.0  0.5611860704962539  0.6172558877635972  0.9327481962432906  1.0000
  H   H3        1.0  0.43181797254420734  0.5857867447722478  0.016182939669627805  1.0000
  H   H4        1.0  0.5177776880135434  0.4207017336724612  0.43104385384147514  1.0000
  H   H5        1.0  0.40896545398927525  0.543824218383103  0.49508943435791664  1.0000
  H   H6        1.0  0.2802839419213847  0.509522235052644  0.578845192031797  1.0000
  H   H7        1.0  0.21570313600096802  0.38105194819710486  0.16457340764372974  1.0000
  H   H8        1.0  0.3445220176258779  0.4125681093928506  0.08041253404807569  1.0000
  C   C15       1.0  0.9082290122503485  0.030873851258868656  0.4561518071535364  1.0000
  C   C16       1.0  0.9094010061664192  0.01809776670311769  0.608188310881578  1.0000
  C   C17       1.0  0.9101676946380274  0.8943986619773078  0.6851282497053495  1.0000
  C   C18       1.0  0.9093609770253959  0.7828380695920519  0.6078515446909798  1.0000
  C   C19       1.0  0.9082011403109997  0.7936761410804042  0.4558713354569932  1.0000
  C   C20       1.0  0.9076983739056051  0.9181390927082638  0.38091922492820207  1.0000
  C   C21       1.0  0.9112663327156213  0.8803895593848167  0.8495306201672186  1.0000
  C   C22       1.0  0.8375764908875157  0.9332816702602161  0.9106543961594094  1.0000
  C   C23       1.0  0.8473989333366263  0.9778381459865875  0.06449787730446144  1.0000
  C   C24       1.0  0.9096065845039696  0.9004338139951763  0.1510919688198814  1.0000
  C   C25       1.0  0.9865446630321624  0.9176866500428831  0.0786033828856012  1.0000
  C   C26       1.0  0.9808857305697192  0.9449039247322901  0.912561416748044  1.0000
  H   H9        1.0  0.905691436941122  0.262313426150365  0.16914823659877598  1.0000
  H   H10       1.0  0.9094288842161325  0.10447346704498961  0.6671008543350132  1.0000
  H   H11       1.0  0.9096585050413312  0.6873178117500909  0.6665283131094857  1.0000
  H   H12       1.0  0.9068010967758868  0.9272002976501611  0.2636952372525079  1.0000
  H   H13       1.0  0.9075165103012461  0.47037037815756555  0.3973568913805521  1.0000
  H   H14       1.0  0.9155110322115956  0.7748537817639858  0.8870701871509916  1.0000
  H   H15       1.0  0.7948383915618397  0.8551769791674495  0.9122608872385596  1.0000
  H   H16       1.0  0.8144457669278742  0.01707249846415948  0.8395487597125384  1.0000
  H   H17       1.0  0.8616799417874622  0.08307248055460592  0.05734634869206334  1.0000
  H   H18       1.0  0.793528735803964  0.9663156174689865  0.12255723378964689  1.0000
  H   H19       1.0  0.894672954840311  0.7954733018697308  0.1606019473842839  1.0000
  H   H20       1.0  0.9132153791494166  0.932544611814609  0.26242525337658806  1.0000
  H   H21       1.0  0.020854538340030926  0.8279299232408859  0.10624785181127405  1.0000
  H   H22       1.0  0.016673034349941496  0.9995604824893086  0.12397618664934018  1.0000
  H   H23       1.0  0.9778386914601166  0.0520794122511945  0.8853412243110721  1.0000
  H   H24       1.0  0.032716628560420125  0.9080634160905883  0.8639454934386421  1.0000
  C   C27       1.0  0.9099114283612945  0.4148900336025343  0.03231678580333974  1.0000
  C   C28       1.0  0.9583923432551571  0.3287111284915132  0.11542751754941016  1.0000
  C   C29       1.0  0.0008893545757913124  0.23595665966853163  0.05082217708466241  1.0000
  C   C30       1.0  0.9960589524467962  0.22655392933027452  0.9010590136125214  1.0000
  C   C31       1.0  0.9488295784147724  0.31404991355088785  0.8165399740661883  1.0000
  C   C32       1.0  0.9065187029361965  0.4096600501852512  0.8797063848581987  1.0000
  C   C33       1.0  0.041207377433954306  0.1262659172696281  0.8347691534466621  1.0000
  N   N3        1.0  0.09069465444090219  0.044635050899189066  0.9085268967409696  1.0000
  N   N4        1.0  0.11837337288761218  0.9713629569289532  0.8109524552059608  1.0000
  N   N5        1.0  0.08742498090890316  0.005776249304260572  0.6822841160381259  1.0000
  N   N6        1.0  0.039113724911477465  0.10217789654082199  0.694359843081418  1.0000
  H   H25       1.0  0.8550696992628898  0.6085211845983645  0.29346737658513344  1.0000
  H   H26       1.0  0.9621506320171044  0.33084700417808355  0.23193284790277868  1.0000
  H   H27       1.0  0.037022396072312835  0.17034633688146217  0.11888437056500822  1.0000
  H   H28       1.0  0.9461581342511555  0.3108173533462564  0.7003446370791679  1.0000
  H   H29       1.0  0.8028374416402153  0.5317183701535926  0.5844314215700614  1.0000
  H   H30       1.0  0.006715832459057269  0.1470314672635027  0.6090599006489326  1.0000
  Zn  Zn1       1.0  0.8259134404058022  0.4140073915347995  0.45163295496210365  1.0000
  Zn  Zn2       1.0  0.9905095273679227  0.4105421783094616  0.46038917865663787  1.0000
  C   C34       1.0  0.9071585336498424  0.4054744441896181  0.7195334256986992  1.0000
  C   C35       1.0  0.909266230881186  0.4190767257202104  0.19248894454845766  1.0000
  C   C36       1.0  0.9082255654579238  0.6495258759395555  0.4501746412129315  1.0000
  C   C37       1.0  0.908199142656996  0.17502373422298323  0.46184780354303756  1.0000
  O   O1        1.0  0.9715130541223266  0.4191611211861548  0.24956712755583355  1.0000
  O   O2        1.0  0.9698363336174308  0.40275905481046426  0.6691005988934635  1.0000
  O   O3        1.0  0.9706971272544149  0.5998336808679392  0.45159142937114094  1.0000
  O   O4        1.0  0.9706522047526358  0.22208650626994197  0.4670761859051258  1.0000
  O   O5        1.0  0.8457707068525526  0.6024630647582874  0.44494594471795645  1.0000
  O   O6        1.0  0.844909913463141  0.4053899996320711  0.6624550367358077  1.0000
  O   O7        1.0  0.8465866409648422  0.42179203145271593  0.24291983072612489  1.0000
  O   O8        1.0  0.8457257911593218  0.22471740657920924  0.4604289972527882  1.0000
