data_image0
_chemical_formula_structural       NC12NC2H8C9NC2H9C9H10Zn2C4O8
_chemical_formula_sum              "N3 C38 H27 Zn2 O8"
_cell_length_a       17.80743265337812
_cell_length_b       9.273595471060368
_cell_length_c       10.297187173949778
_cell_angle_alpha    85.65736765633463
_cell_angle_beta     91.50840816747596
_cell_angle_gamma    88.84631592348521

_space_group_name_H-M_alt    "P 1"
_space_group_IT_number       1

loop_
  _space_group_symop_operation_xyz
  'x, y, z'

loop_
  _atom_site_type_symbol
  _atom_site_label
  _atom_site_symmetry_multiplicity
  _atom_site_fract_x
  _atom_site_fract_y
  _atom_site_fract_z
  _atom_site_occupancy
  N   N1        1.0  0.699440968203379  0.5621733853883482  0.6029040929228553  1.0000
  C   C1        1.0  0.6484634352767616  0.5949926861872978  0.5342308124407908  1.0000
  C   C2        1.0  0.5850423800502673  0.6358175147400245  0.4488098983809139  1.0000
  C   C3        1.0  0.5964810878718746  0.6957967968845189  0.3222364650934266  1.0000
  C   C4        1.0  0.5349756885834026  0.734951990393222  0.23921002627104038  1.0000
  C   C5        1.0  0.46187588468686175  0.7144204195924118  0.28209733631740685  1.0000
  C   C6        1.0  0.44946098871348  0.6543092632235765  0.409138846920609  1.0000
  C   C7        1.0  0.5118236890070909  0.6151576809841159  0.49214877512763855  1.0000
  C   C8        1.0  0.37179885444018  0.6325407182953198  0.45488554315124285  1.0000
  C   C9        1.0  0.35281978840159917  0.6627590339691278  0.5819901226579982  1.0000
  C   C10       1.0  0.2796897818479839  0.6422736461024998  0.6249180579789511  1.0000
  C   C11       1.0  0.2245971687246857  0.5912876672067784  0.5415792109050934  1.0000
  C   C12       1.0  0.14933348249126913  0.5701884961119728  0.5859076196592063  1.0000
  N   N2        1.0  0.0888268090048553  0.553226181559326  0.6215446107607683  1.0000
  C   C13       1.0  0.24288560672314582  0.5608818339748818  0.4150174844572958  1.0000
  C   C14       1.0  0.3159627347281774  0.5813835993641789  0.371833632006062  1.0000
  H   H1        1.0  0.6528675083620121  0.712255649780124  0.2878122464584765  1.0000
  H   H2        1.0  0.5439486871491418  0.7816924315830427  0.1414672428428796  1.0000
  H   H3        1.0  0.41507726973065645  0.7473253552414811  0.2165327034260498  1.0000
  H   H4        1.0  0.5035573221103752  0.5668785433231083  0.5897652731184155  1.0000
  H   H5        1.0  0.3942592217887558  0.7040658854948236  0.6476246509577137  1.0000
  H   H6        1.0  0.2660922671356992  0.6665548918772164  0.722974539835211  1.0000
  H   H7        1.0  0.20072167352246542  0.5209826364126728  0.34979765161992127  1.0000
  H   H8        1.0  0.32904088767078343  0.5553968607067907  0.2740785316415977  1.0000
  C   C15       1.0  0.8963975256615597  0.13411013989301046  0.6117395824341707  1.0000
  C   C16       1.0  0.8880874563730518  0.21794237868857924  0.4926111364383512  1.0000
  C   C17       1.0  0.8731625598640976  0.15356126376881685  0.37689198173111405  1.0000
  C   C18       1.0  0.866171584444023  0.003254693053400315  0.37708038600454175  1.0000
  C   C19       1.0  0.8756365960966181  0.9182283356209069  0.4953981774934135  1.0000
  C   C20       1.0  0.8918774752349028  0.9812781619225553  0.612720633352865  1.0000
  C   C21       1.0  0.8497721880023551  0.9350769185375728  0.2537669879971456  1.0000
  C   C22       1.0  0.8865189529659789  0.805520317464346  0.22694784036775273  1.0000
  C   C23       1.0  0.870232464577186  0.743420601842215  0.11030820890420512  1.0000
  N   N3        1.0  0.8190757579743078  0.8078994745413153  0.02316244768698561  1.0000
  C   C24       1.0  0.7826004606487011  0.9331505175832433  0.046149582308572246  1.0000
  C   C25       1.0  0.7972232408797242  0.9990217558514481  0.16148428403857062  1.0000
  H   H9        1.0  0.9486944916471948  0.39662361774058774  0.8090951542774878  1.0000
  H   H10       1.0  0.8915476769649524  0.3346607163376809  0.4891851957048261  1.0000
  H   H11       1.0  0.8673436793120431  0.22167144839063213  0.2868668869202544  1.0000
  H   H12       1.0  0.8710036498417348  0.8018401185267895  0.496104850003964  1.0000
  H   H13       1.0  0.9739692132032792  0.8506207158068958  0.9031661389353489  1.0000
  H   H14       1.0  0.9281459315243484  0.7538002062717976  0.29456512551964975  1.0000
  H   H15       1.0  0.898484357722141  0.6439554616863451  0.08891900333948954  1.0000
  H   H16       1.0  0.7420387563605093  0.9815777592650331  0.9749336233548558  1.0000
  H   H17       1.0  0.76704645979056  0.0978806368619276  0.17905393952212778  1.0000
  C   C26       1.0  0.8942371212472336  0.5576397420606269  0.2307816553339026  1.0000
  C   C27       1.0  0.8178827207457046  0.5990093224823005  0.22370054890335522  1.0000
  C   C28       1.0  0.7787641121781311  0.6202039359631601  0.10345628531724693  1.0000
  C   C29       1.0  0.8175867365203782  0.5991691379750401  0.9884638709254796  1.0000
  C   C30       1.0  0.8940379108468239  0.5577486169159775  0.9936785759672606  1.0000
  C   C31       1.0  0.9318638563650575  0.5372529890904199  0.115202907330332  1.0000
  C   C32       1.0  0.6961813265194187  0.6649477998643423  0.10522973006658809  1.0000
  C   C33       1.0  0.6438891416642188  0.6081380632089313  0.0023725740618441016  1.0000
  C   C34       1.0  0.6653824559125535  0.7667611317718004  0.9925269245007424  1.0000
  H   H18       1.0  0.9236608733018014  0.5417117599016079  0.5610477551538344  1.0000
  H   H19       1.0  0.788405788809621  0.614980610346525  0.3123892147095526  1.0000
  H   H20       1.0  0.7889277724479677  0.6146935414487877  0.8945058387799127  1.0000
  H   H21       1.0  0.9907727365404032  0.5053347746110803  0.11993877455155832  1.0000
  H   H22       1.0  0.03842990066867458  0.4794985234639866  0.796312379054466  1.0000
  H   H23       1.0  0.6696379767865765  0.6793304502989588  0.2000558126763501  1.0000
  H   H24       1.0  0.6696816849665636  0.5424472068658142  0.9289902936705059  1.0000
  H   H25       1.0  0.5855973688774099  0.5899621353038422  0.03467305184521785  1.0000
  H   H26       1.0  0.7042313818175086  0.7974249271192022  0.9131648961934156  1.0000
  H   H27       1.0  0.619651906453776  0.8412938532344787  0.019070604947686975  1.0000
  Zn  Zn1       1.0  0.8118093325923211  0.5595875655656308  0.6082908277476862  1.0000
  Zn  Zn2       1.0  0.9764585021334652  0.5558002366520705  0.6161684575705222  1.0000
  C   C35       1.0  0.8941045426513303  0.5519816057380555  0.8494679842217578  1.0000
  C   C36       1.0  0.8941650802942979  0.5634079751684806  0.3749915167206441  1.0000
  C   C37       1.0  0.8927293647557197  0.8211447463600674  0.6073587672712109  1.0000
  C   C38       1.0  0.8955402112351311  0.29424310280787713  0.6171007982292298  1.0000
  O   O1        1.0  0.9566244380328313  0.5639002823227897  0.4263791757509492  1.0000
  O   O2        1.0  0.9566101007756834  0.5486137153320423  0.8040588887668556  1.0000
  O   O3        1.0  0.9554987845732861  0.7659663749846433  0.6085539445525776  1.0000
  O   O4        1.0  0.9577356980219981  0.34654763426737745  0.621884019894098  1.0000
  O   O5        1.0  0.8305320805171008  0.7688401692443227  0.6025752627290315  1.0000
  O   O6        1.0  0.8316433874875881  0.5514892426243119  0.7980801396901911  1.0000
  O   O7        1.0  0.8316577254707188  0.5667757591249194  0.42039886489211065  1.0000
  O   O8        1.0  0.8327689854864283  0.34942310076631733  0.6159038064113098  1.0000
