data_image0
_chemical_formula_structural       NC12NC2H8C9H10C6OCH8Zn2C4O8
_chemical_formula_sum              "N2 C34 H26 O9 Zn2"
_cell_length_a       17.80743265337812
_cell_length_b       10.297183801781406
_cell_length_c       9.273891588657152
_cell_angle_alpha    86.04956984296379
_cell_angle_beta     91.22048166911064
_cell_angle_gamma    89.4353606467078

_space_group_name_H-M_alt    "P 1"
_space_group_IT_number       1

loop_
  _space_group_symop_operation_xyz
  'x, y, z'

loop_
  _atom_site_type_symbol
  _atom_site_label
  _atom_site_symmetry_multiplicity
  _atom_site_fract_x
  _atom_site_fract_y
  _atom_site_fract_z
  _atom_site_occupancy
  N   N1        1.0  0.7119169921811308  0.39432460118873713  0.44721675089253554  1.0000
  C   C1        1.0  0.6613181812052924  0.42326543028951713  0.3709678225552957  1.0000
  C   C2        1.0  0.5983682177380387  0.45926575431392  0.2761237533680352  1.0000
  C   C3        1.0  0.6105022328524378  0.512147319356659  0.13558835004743441  1.0000
  C   C4        1.0  0.549451918193239  0.5466654754746625  0.04340382166937018  1.0000
  C   C5        1.0  0.4761154083432425  0.5285595893111348  0.0910222794071045  1.0000
  C   C6        1.0  0.4630031134903813  0.4755634553004109  0.23207723476440223  1.0000
  C   C7        1.0  0.5249107973824624  0.4410484034883251  0.3242434386688853  1.0000
  C   C8        1.0  0.3850891951898858  0.4563692040294196  0.2828702829728831  1.0000
  C   C9        1.0  0.3658943641632251  0.4847211217324279  0.4238369071075663  1.0000
  C   C10       1.0  0.2925277775164354  0.4666571901167216  0.47150035670829293  1.0000
  C   C11       1.0  0.23741035898769813  0.4199946372754584  0.37912719333035017  1.0000
  C   C12       1.0  0.16190266537064363  0.4013904975121756  0.4283455113890382  1.0000
  N   N2        1.0  0.1011998265607568  0.38643401973736435  0.4679136532310988  1.0000
  C   C13       1.0  0.25591195182340487  0.39147870992427136  0.23876318070127733  1.0000
  C   C14       1.0  0.32922650624657057  0.4095550984830565  0.1908157682790117  1.0000
  H   H1        1.0  0.6670785364949108  0.5266612595353914  0.09736663345369578  1.0000
  H   H2        1.0  0.5589641052668066  0.5878828301439387  0.9348785569873153  1.0000
  H   H3        1.0  0.4296867528841274  0.5576053800293881  0.018222173382882678  1.0000
  H   H4        1.0  0.5160974090321785  0.39844422284580827  0.4326312891925055  1.0000
  H   H5        1.0  0.4073594793386837  0.5225084342238777  0.4965845024125113  1.0000
  H   H6        1.0  0.27876897642243265  0.48940223224939094  0.5802491951980913  1.0000
  H   H7        1.0  0.2137286154643801  0.35496279430053046  0.1664732134425233  1.0000
  H   H8        1.0  0.34245595460616335  0.38527684981135346  0.08240429448304387  1.0000
  C   C15       1.0  0.9065640403870376  0.00890530902668396  0.457769713324339  1.0000
  C   C16       1.0  0.904815246045185  0.01756788503379192  0.3059997318961283  1.0000
  C   C17       1.0  0.9039191138181327  0.9053894921721527  0.22824352294909955  1.0000
  C   C18       1.0  0.9048081553800699  0.7823921575655165  0.3054114773015755  1.0000
  C   C19       1.0  0.9065599451343493  0.771843299635659  0.457373467231144  1.0000
  C   C20       1.0  0.9074257392350525  0.8855681919891587  0.5325605741888599  1.0000
  C   C21       1.0  0.9020274614240424  0.9241908788228226  0.0640935602772763  1.0000
  C   C22       1.0  0.8582772264887086  0.8257085710146745  0.9815294869136837  1.0000
  C   C23       1.0  0.9438666219082062  0.8242447142287592  0.9815010800785222  1.0000
  H   H9        1.0  0.9072450393973224  0.33310565005509596  0.5162519344250336  1.0000
  H   H10       1.0  0.904140272682213  0.11233447944533426  0.2474081540623707  1.0000
  H   H11       1.0  0.9041501035646663  0.6943430578298356  0.24844687936040089  1.0000
  H   H12       1.0  0.908774594302706  0.8781573974575517  0.6496542819048359  1.0000
  H   H13       1.0  0.9098586045619305  0.5447032296418312  0.7443863466711322  1.0000
  H   H14       1.0  0.90142014070861  0.024490168949498514  0.011332913274497702  1.0000
  H   H15       1.0  0.8330210943028661  0.7431161611894053  0.045782240549849806  1.0000
  H   H16       1.0  0.8320734523389787  0.8662837663235673  0.8781560019726626  1.0000
  H   H17       1.0  0.9706014490845594  0.7407638958895955  0.04573733042620387  1.0000
  H   H18       1.0  0.967686086624059  0.8639619714519428  0.8781096628803526  1.0000
  C   C24       1.0  0.9077925561917433  0.38690892918099173  0.03436348387473176  1.0000
  C   C25       1.0  0.9693068158522915  0.4405307167450747  0.10617921245875661  1.0000
  C   C26       1.0  0.026560273260856526  0.5039391086597214  0.029379927611536294  1.0000
  C   C27       1.0  0.022504202427414466  0.5140470719297852  0.8777184632610675  1.0000
  C   C28       1.0  0.9625680492266976  0.45960672641107236  0.8046448476994827  1.0000
  C   C29       1.0  0.9053313993223037  0.3938396288086601  0.8807797016215644  1.0000
  O   O1        1.0  0.08602317075904597  0.5560030557719002  0.10772033003431769  1.0000
  C   C30       1.0  0.14787849583085189  0.6231154503739273  0.043897114754879674  1.0000
  H   H19       1.0  0.7291248731465687  0.310743916975472  0.13592297204299442  1.0000
  H   H20       1.0  0.9721654536948603  0.43594385032400784  0.2232674991513255  1.0000
  H   H21       1.0  0.06577437694926735  0.562775136352315  0.8150711107206359  1.0000
  H   H22       1.0  0.9619619205135711  0.46631410615146307  0.6875279706498669  1.0000
  H   H23       1.0  0.7861837956808105  0.33738810758332116  0.5990329278894619  1.0000
  H   H24       1.0  0.12771476347933497  0.711431599579307  0.9783838703215153  1.0000
  H   H25       1.0  0.17919886154106068  0.5580092224582538  0.9751831098319257  1.0000
  H   H26       1.0  0.1863292530741525  0.6533865972881214  0.13076884141328748  1.0000
  Zn  Zn1       1.0  0.8242555884101749  0.3920441496237268  0.4531977399393783  1.0000
  Zn  Zn2       1.0  0.9888611937140637  0.38870397118013544  0.46194442488035437  1.0000
  C   C31       1.0  0.9057949753158568  0.38735454640467437  0.720791530075739  1.0000
  C   C32       1.0  0.9073236038763483  0.3933951781538303  0.19435087085683578  1.0000
  C   C33       1.0  0.9065735409822323  0.6275848296673148  0.4517052548184879  1.0000
  C   C34       1.0  0.9065449818265761  0.15316333592764697  0.46343722077465044  1.0000
  O   O2        1.0  0.9696331885893921  0.3942987749474802  0.2513634237254321  1.0000
  O   O3        1.0  0.9684172375255942  0.38391484806936416  0.6704170943418497  1.0000
  O   O4        1.0  0.9690450927055748  0.5779038692885892  0.45312797779341607  1.0000
  O   O5        1.0  0.9690052775548195  0.20030976327600225  0.4686524292269447  1.0000
  O   O6        1.0  0.8441114483976266  0.5804383586690507  0.44648973260039204  1.0000
  O   O7        1.0  0.8434835934292507  0.38645089755455997  0.6637787714958672  1.0000
  O   O8        1.0  0.8446995495814505  0.3968347649752959  0.24472336820684149  1.0000
  O   O9        1.0  0.8440716382296773  0.20284574489726226  0.4620124817628799  1.0000
