data_image0
_chemical_formula_structural       NC12NC2H8C12H10C6OCH8Zn2C4O8
_chemical_formula_sum              "N2 C37 H26 O9 Zn2"
_cell_length_a       17.80743265337812
_cell_length_b       10.299137764757564
_cell_length_c       9.273891588657152
_cell_angle_alpha    86.05603520339396
_cell_angle_beta     91.22048166911064
_cell_angle_gamma    89.45463381285008

_space_group_name_H-M_alt    "P 1"
_space_group_IT_number       1

loop_
  _space_group_symop_operation_xyz
  'x, y, z'

loop_
  _atom_site_type_symbol
  _atom_site_label
  _atom_site_symmetry_multiplicity
  _atom_site_fract_x
  _atom_site_fract_y
  _atom_site_fract_z
  _atom_site_occupancy
  N   N1        1.0  0.7121903529613399  0.3940439177824526  0.44740344941411614  1.0000
  C   C1        1.0  0.6615972159064927  0.4229789209726189  0.3711583962218763  1.0000
  C   C2        1.0  0.598654310391637  0.45897199798039034  0.2763191474381761  1.0000
  C   C3        1.0  0.6107986930674106  0.5118429177416843  0.13579082490063277  1.0000
  C   C4        1.0  0.5497551457779332  0.5463541252096886  0.04361091846548604  1.0000
  C   C5        1.0  0.4764150862242567  0.5282518838371935  0.091226951845093  1.0000
  C   C6        1.0  0.46329240134849203  0.47526641817113013  0.23227481107867565  1.0000
  C   C7        1.0  0.5251933184794585  0.4407583143841327  0.32443639345590447  1.0000
  C   C8        1.0  0.3853747199676502  0.456076030783644  0.28306528919814533  1.0000
  C   C9        1.0  0.3661854474044471  0.48442224112637966  0.4240357096232439  1.0000
  C   C10       1.0  0.2928153192792702  0.46636194585607904  0.47169674048351107  1.0000
  C   C11       1.0  0.2376887524418531  0.41970878638295006  0.3793173290413647  1.0000
  C   C12       1.0  0.1621774114372704  0.4011083917112441  0.4285331560263199  1.0000
  N   N2        1.0  0.10147164037299301  0.38615492473831114  0.46809929521255245  1.0000
  C   C13       1.0  0.25618475465960583  0.39119859940786705  0.23894949816116595  1.0000
  C   C14       1.0  0.3295028530033734  0.4092713491136122  0.1910045061473309  1.0000
  H   H1        1.0  0.667377842203686  0.5263539362032181  0.09757105170742753  1.0000
  H   H2        1.0  0.5592754136156363  0.5875631826521241  0.9350911727416231  1.0000
  H   H3        1.0  0.4299921252641168  0.5572918275156182  0.01843073502011583  1.0000
  H   H4        1.0  0.5163715774743836  0.3981627101423584  0.4328185393268684  1.0000
  H   H5        1.0  0.40765797087580463  0.5222019468729044  0.4967883646075282  1.0000
  H   H6        1.0  0.2790609774069276  0.48910240931610915  0.5804486245092886  1.0000
  H   H7        1.0  0.21399425926517693  0.35469003459151494  0.16665464146170716  1.0000
  H   H8        1.0  0.3427275415523788  0.3849979877554732  0.08258978152072394  1.0000
  C   C15       1.0  0.9067618387635401  0.00870221214485678  0.4579048046290821  1.0000
  C   C16       1.0  0.9071695405286496  0.017313259073301168  0.30615464428208816  1.0000
  C   C17       1.0  0.9074509615631731  0.9045448933875162  0.22905980353052602  1.0000
  C   C18       1.0  0.9073191250695158  0.7820518156651914  0.3057662339188023  1.0000
  C   C19       1.0  0.9069072996149127  0.7714866150682621  0.4576107609286959  1.0000
  C   C20       1.0  0.9066324511230341  0.8853216494775528  0.532745294661517  1.0000
  C   C21       1.0  0.907881380177113  0.9146994618587483  0.06852307930415047  1.0000
  C   C22       1.0  0.9534090822030189  0.8308318365100789  0.9934030527941902  1.0000
  C   C23       1.0  0.9537208767895003  0.8406425386765985  0.8422860802822925  1.0000
  C   C24       1.0  0.9086983692265421  0.9339301821406529  0.7645908752481034  1.0000
  C   C25       1.0  0.8632701392388162  0.017666326087231177  0.8378547972175623  1.0000
  C   C26       1.0  0.8627694725938196  0.008354356252436856  0.9889627024871674  1.0000
  H   H9        1.0  0.9065666754333918  0.33286654796696347  0.5162759131540677  1.0000
  H   H10       1.0  0.9083086568974205  0.11194045302833322  0.2476133569202772  1.0000
  H   H11       1.0  0.9064998304202018  0.6948209142457453  0.24684727257594918  1.0000
  H   H12       1.0  0.9063159250392108  0.8779642635550837  0.6497935661866969  1.0000
  H   H13       1.0  0.9056523733848614  0.5442634663695511  0.7441839480970158  1.0000
  H   H14       1.0  0.9894502214451157  0.7588938889644733  0.051502072013107636  1.0000
  H   H15       1.0  0.9890596745962744  0.7760398327781708  0.7853938311440256  1.0000
  H   H16       1.0  0.909012878762625  0.9413314036431025  0.6476198831369255  1.0000
  H   H17       1.0  0.8282465675071078  0.08968675795844594  0.7775139452338125  1.0000
  H   H18       1.0  0.8264257962412717  0.07316625230106522  0.04350696436594692  1.0000
  C   C27       1.0  0.9080644631111482  0.38662973858066985  0.0345491894460348  1.0000
  C   C28       1.0  0.9695892354555237  0.4402407318534012  0.10637209792809355  1.0000
  C   C29       1.0  0.026855124235859007  0.5036363593920807  0.02958130339440279  1.0000
  C   C30       1.0  0.022801035093569233  0.5137422878866276  0.8779211924890338  1.0000
  C   C31       1.0  0.9628542087287174  0.4593129014384256  0.8048402874254101  1.0000
  C   C32       1.0  0.9056046650224804  0.3935590430293552  0.8809663352058794  1.0000
  O   O1        1.0  0.08632822899940895  0.5556898258127425  0.10792867712210463  1.0000
  C   C33       1.0  0.14819671162185544  0.6227887104074836  0.04411444811805865  1.0000
  H   H19       1.0  0.7293818477273035  0.3104800587124321  0.13609847920342277  1.0000
  H   H20       1.0  0.9724469740316072  0.4356547887878359  0.2234597704443233  1.0000
  H   H21       1.0  0.066080762872746  0.5624605431448553  0.8152803645825211  1.0000
  H   H22       1.0  0.9622493950139474  0.4660189309550655  0.6877243084865219  1.0000
  H   H23       1.0  0.7864459939208901  0.3371188857326557  0.5992120026775369  1.0000
  H   H24       1.0  0.1280502938694157  0.7110870812005998  0.9786130291193706  1.0000
  H   H25       1.0  0.1795043130953553  0.5576955886493045  0.9753917255432127  1.0000
  H   H26       1.0  0.18665340359823945  0.6530537636124931  0.1309902280495503  1.0000
  Zn  Zn1       1.0  0.824528502102225  0.39176392528193293  0.45338413311101733  1.0000
  Zn  Zn2       1.0  0.989133452555884  0.3884244192303097  0.4621303708057951  1.0000
  C   C34       1.0  0.9060669695996189  0.38707526609973164  0.7209772953146953  1.0000
  C   C35       1.0  0.907596782440877  0.39311468184431164  0.19453744492970104  1.0000
  C   C36       1.0  0.9068926330060805  0.6272571899960226  0.4519231866266098  1.0000
  C   C37       1.0  0.9067710623453799  0.15293119929830334  0.46359162806960574  1.0000
  O   O2        1.0  0.9699065443063029  0.39401809674012656  0.25155011878890776  1.0000
  O   O3        1.0  0.9686885574480059  0.3836362601901626  0.6706023990090042  1.0000
  O   O4        1.0  0.9693544446544938  0.5775862306035624  0.45333925737590497  1.0000
  O   O5        1.0  0.9692406012470945  0.20006813587255134  0.46881314937636454  1.0000
  O   O6        1.0  0.8444212972394458  0.5801202097806528  0.4467013515482048  1.0000
  O   O7        1.0  0.8437554105504245  0.3861717991579312  0.663964415737242  1.0000
  O   O8        1.0  0.8449734024854667  0.3965535762624839  0.24491040283657672  1.0000
  O   O9        1.0  0.8443074591074099  0.20260360699004543  0.4621735414774337  1.0000
