data_image0
_chemical_formula_structural       NC12NC2H8C6OCH8C6SCNH5Zn2C4O8
_chemical_formula_sum              "N3 C32 H21 O9 S1 Zn2"
_cell_length_a       17.80743265337812
_cell_length_b       9.273888216677433
_cell_length_c       9.275272990362726
_cell_angle_alpha    85.24093968551765
_cell_angle_beta     91.20895717805207
_cell_angle_gamma    88.85715842325122

_space_group_name_H-M_alt    "P 1"
_space_group_IT_number       1

loop_
  _space_group_symop_operation_xyz
  'x, y, z'

loop_
  _atom_site_type_symbol
  _atom_site_label
  _atom_site_symmetry_multiplicity
  _atom_site_fract_x
  _atom_site_fract_y
  _atom_site_fract_z
  _atom_site_occupancy
  N   N1        1.0  0.7036949553394072  0.5759919174370958  0.45107298257604045  1.0000
  C   C1        1.0  0.652921182374835  0.6094991815958217  0.3748516083419309  1.0000
  C   C2        1.0  0.5897535790977952  0.6511797495972345  0.280041819439943  1.0000
  C   C3        1.0  0.6015677799221555  0.7124271354780036  0.1395553198279671  1.0000
  C   C4        1.0  0.5403086641334977  0.7524141849930832  0.047402175564384974  1.0000
  C   C5        1.0  0.4670816053147872  0.7314529796406017  0.09500329458142653  1.0000
  C   C6        1.0  0.4542898386657927  0.6700690121579629  0.23600949673043203  1.0000
  C   C7        1.0  0.5164063039282129  0.6300857401631039  0.3281443073786805  1.0000
  C   C8        1.0  0.3764919811458414  0.6478421618789301  0.28678453621202116  1.0000
  C   C9        1.0  0.3571468353428103  0.6767691078911666  0.4280353021247605  1.0000
  C   C10       1.0  0.2838894612977653  0.6558536654779732  0.4756816383931428  1.0000
  C   C11       1.0  0.2290330889758854  0.6057205852810519  0.3830073189226304  1.0000
  C   C12       1.0  0.1536378866611533  0.584177318797501  0.4322081662509245  1.0000
  N   N2        1.0  0.09302548328895592  0.5668579821099298  0.4717622627079172  1.0000
  C   C13       1.0  0.247686004780769  0.5766006691854  0.2423592116656641  1.0000
  C   C14       1.0  0.3208912467376661  0.5975350738934393  0.19442862498360824  1.0000
  H   H1        1.0  0.6580563411392654  0.7292308459488901  0.10134744249948335  1.0000
  H   H2        1.0  0.5495716780443027  0.8001337997777938  0.9389162343507853  1.0000
  H   H3        1.0  0.420477717574631  0.7650144247399626  0.02223528454943713  1.0000
  H   H4        1.0  0.5078501021140508  0.5808290112648427  0.4364869935799429  1.0000
  H   H5        1.0  0.39840035438390153  0.7174040200225225  0.5010243218255517  1.0000
  H   H6        1.0  0.27000964730582  0.6791384750931826  0.5846532516844332  1.0000
  H   H7        1.0  0.2057069505843135  0.5373689380445288  0.16983357016214495  1.0000
  H   H8        1.0  0.3342506150269369  0.5725420619633994  0.08578850242539504  1.0000
  C   C15       1.0  0.9005738034885132  0.14792424582114827  0.4600608042746055  1.0000
  C   C16       1.0  0.883398969260159  0.23275532594159887  0.3302478193029603  1.0000
  C   C17       1.0  0.8598169736542929  0.169698113672911  0.20575612352677997  1.0000
  C   C18       1.0  0.8532722025540103  0.018823775858958003  0.21060665500280562  1.0000
  C   C19       1.0  0.8712410828033528  0.9328040600352097  0.3376858710537185  1.0000
  C   C20       1.0  0.8961538313557541  0.9949143023390529  0.4627872243157156  1.0000
  O   O1        1.0  0.8430853428192611  0.2606475392159848  0.08020944652616802  1.0000
  C   C21       1.0  0.8183914905683226  0.2115029468107965  0.9460900905281329  1.0000
  H   H9        1.0  0.9056789341518882  0.22127832435709816  0.8154684740318421  1.0000
  H   H10       1.0  0.8865840265789264  0.3495948447025785  0.32613953736117396  1.0000
  H   H11       1.0  0.8349960377386793  0.9666594145346618  0.11630104067218694  1.0000
  H   H12       1.0  0.8673387543170892  0.8164315368020907  0.3369979597070969  1.0000
  H   H13       1.0  0.9027429547840139  0.693675556467162  0.7013354863437782  1.0000
  H   H14       1.0  0.7644354689892318  0.15449440029845007  0.9598548244772886  1.0000
  H   H15       1.0  0.8616446093757293  0.1382711230253615  0.9051158235025238  1.0000
  H   H16       1.0  0.8094826405526951  0.3061187012473947  0.8658302876945685  1.0000
  C   C22       1.0  0.8995730730221219  0.575222348053543  0.037697090997466765  1.0000
  C   C23       1.0  0.8419419546557205  0.6510257693520283  0.1026485202300429  1.0000
  C   C24       1.0  0.78177964364093  0.7143746392311279  0.02002174131302681  1.0000
  C   C25       1.0  0.7781517977669867  0.7034129089400485  0.8709601227434369  1.0000
  C   C26       1.0  0.8353548107517256  0.630179876184646  0.8040658189661851  1.0000
  C   C27       1.0  0.8971545908675609  0.5676161852871022  0.8851509126555555  1.0000
  S   S1        1.0  0.7002675733859488  0.7833592979921982  0.7654291520395637  1.0000
  C   C28       1.0  0.7458679584395006  0.9496782512050261  0.7321936501907844  1.0000
  N   N3        1.0  0.7757828273661038  0.058704200463290945  0.7104214109337255  1.0000
  H   H17       1.0  0.019016368701779696  0.5067899373890565  0.3293519032658978  1.0000
  H   H18       1.0  0.8424519872283279  0.6583978953400367  0.21861400787344865  1.0000
  H   H19       1.0  0.7376315348474916  0.7710855511732315  0.07235656172604554  1.0000
  H   H20       1.0  0.8324285728531293  0.6253832520747513  0.6877532310038439  1.0000
  H   H21       1.0  0.07622797277271531  0.4744241812015184  0.7971360266019407  1.0000
  Zn  Zn1       1.0  0.816047335395069  0.5733521360174316  0.4570517680084749  1.0000
  Zn  Zn2       1.0  0.980673128539221  0.5694858941244278  0.4657952090120083  1.0000
  C   C29       1.0  0.8976400297304061  0.5633087252007034  0.7249454283584134  1.0000
  C   C30       1.0  0.8990822220125664  0.5795310810965613  0.19790179162145338  1.0000
  C   C31       1.0  0.8970018562649786  0.8348668513357034  0.4565216950485482  1.0000
  C   C32       1.0  0.899720348125021  0.30797122291367685  0.46632559329924717  1.0000
  O   O2        1.0  0.961392151306037  0.579503620954156  0.25498602268035997  1.0000
  O   O3        1.0  0.9602772751146066  0.560400712975966  0.6744968478411708  1.0000
  O   O4        1.0  0.9597610955007695  0.7796873404638058  0.457742744147843  1.0000
  O   O5        1.0  0.9619082749991625  0.36021700607319596  0.4717400152334432  1.0000
  O   O6        1.0  0.8348121327564371  0.7826210253896597  0.45110695879574747  1.0000
  O   O7        1.0  0.8353283035445566  0.563336131270701  0.6678609911298552  1.0000
  O   O8        1.0  0.8364431849991069  0.5824390045626531  0.2483484309870827  1.0000
  O   O9        1.0  0.836959308434254  0.3631523783958095  0.4651025316891193  1.0000
