data_image0
_chemical_formula_structural       NC12NC2H8C6OCH8C9NC2H9Zn2C4O8
_chemical_formula_sum              "N3 C36 H25 O9 Zn2"
_cell_length_a       17.80743265337812
_cell_length_b       9.273888216677433
_cell_length_c       9.273598843048156
_cell_angle_alpha    85.31199267911973
_cell_angle_beta     91.13569736745053
_cell_angle_gamma    88.85715842325122

_space_group_name_H-M_alt    "P 1"
_space_group_IT_number       1

loop_
  _space_group_symop_operation_xyz
  'x, y, z'

loop_
  _atom_site_type_symbol
  _atom_site_label
  _atom_site_symmetry_multiplicity
  _atom_site_fract_x
  _atom_site_fract_y
  _atom_site_fract_z
  _atom_site_occupancy
  N   N1        1.0  0.7047488939501504  0.5740203006064455  0.4509971270855879  1.0000
  C   C1        1.0  0.6540269844035221  0.6074305431866169  0.37477202006764787  1.0000
  C   C2        1.0  0.5909238926858238  0.6489904285648938  0.27995758805274606  1.0000
  C   C3        1.0  0.6028336849386783  0.710058990302241  0.1394642084056168  1.0000
  C   C4        1.0  0.5416372730448767  0.7499287388159279  0.047306551132786145  1.0000
  C   C5        1.0  0.4683778249291355  0.7290281245476977  0.09491000131597649  1.0000
  C   C6        1.0  0.4554901132297112  0.6678236427336903  0.23592310895148993  1.0000
  C   C7        1.0  0.5175438870720428  0.6279576484035112  0.3280624317111358  1.0000
  C   C8        1.0  0.3776577067775185  0.6456614235969209  0.28670063503540355  1.0000
  C   C9        1.0  0.35821644951518844  0.6747681665810499  0.42795831841165466  1.0000
  C   C10       1.0  0.2849266554058738  0.6539133728087858  0.47560698806060664  1.0000
  C   C11       1.0  0.23013334160283663  0.6036623282107136  0.3829281300573697  1.0000
  C   C12       1.0  0.15470466148566633  0.5821816890928058  0.43213138689519104  1.0000
  N   N2        1.0  0.0940653442634294  0.5649127004987331  0.4716874204320798  1.0000
  C   C13       1.0  0.24888195879913413  0.5743633822625589  0.24227313485085045  1.0000
  C   C14       1.0  0.3221198142332136  0.5952367765095872  0.19434020086765025  1.0000
  H   H1        1.0  0.659348243996034  0.7268140662712061  0.1012544599255285  1.0000
  H   H2        1.0  0.5509741041987681  0.7975102627124435  0.9388152970450583  1.0000
  H   H3        1.0  0.4218234508294136  0.7624969438282188  0.022138427621510415  1.0000
  H   H4        1.0  0.5089139654900062  0.5788388280452836  0.43641042377090944  1.0000
  H   H5        1.0  0.3994203045339224  0.7154959858526881  0.5009509125984126  1.0000
  H   H6        1.0  0.2709726937043006  0.6773368915202995  0.5845839380108091  1.0000
  H   H7        1.0  0.20695225332795084  0.5350393338118127  0.16974394155435202  1.0000
  H   H8        1.0  0.3355531046754018  0.5701054774351502  0.0856947578845968  1.0000
  C   C15       1.0  0.9016216265029707  0.14596406951696084  0.45998538894409324  1.0000
  C   C16       1.0  0.8845351211083823  0.23062991172553504  0.33016604665055227  1.0000
  C   C17       1.0  0.8610378335639156  0.16741423497149244  0.20566825415158685  1.0000
  C   C18       1.0  0.8544897620096105  0.016546071360318937  0.21051902317233862  1.0000
  C   C19       1.0  0.8723721735674574  0.9306881136558193  0.3376044626644801  1.0000
  C   C20       1.0  0.8971997992283498  0.9929575964731623  0.4627119425059738  1.0000
  O   O1        1.0  0.8443916286326568  0.2582038531520363  0.08011542876266997  1.0000
  C   C21       1.0  0.8197890354056389  0.20888854128968326  0.9459895045471436  1.0000
  H   H9        1.0  0.90648492662075  0.21977054363743664  0.8154104640553566  1.0000
  H   H10       1.0  0.8877229738312673  0.3474642010872404  0.3260575635141725  1.0000
  H   H11       1.0  0.8362777656974014  0.9642616691726716  0.11620879041971044  1.0000
  H   H12       1.0  0.8684703131576889  0.8143147147858406  0.3369165176288256  1.0000
  H   H13       1.0  0.9036266069238164  0.6920224967789451  0.7012718869407666  1.0000
  H   H14       1.0  0.7658236478690739  0.15189751579725508  0.9597549125956162  1.0000
  H   H15       1.0  0.8630700343917622  0.1356045616869741  0.9050132308917278  1.0000
  H   H16       1.0  0.8109347966816638  0.3034021336642143  0.865725771156078  1.0000
  C   C22       1.0  0.9009082855779794  0.5727245483517482  0.03760099127946592  1.0000
  C   C23       1.0  0.8502228515094222  0.664966309964331  0.101627470557905  1.0000
  C   C24       1.0  0.7958915869880628  0.7459544818470845  0.018252797868692605  1.0000
  C   C25       1.0  0.7907626204731963  0.7370042912972821  0.8682280974347734  1.0000
  C   C26       1.0  0.8420041007608727  0.6469131038877898  0.8028293380266649  1.0000
  C   C27       1.0  0.8979131282956777  0.5661971154848311  0.8850963187810335  1.0000
  C   C28       1.0  0.7324975328336011  0.822685037364999  0.7798278549736355  1.0000
  C   C29       1.0  0.7498076028141173  0.8919944044338806  0.6444311356174763  1.0000
  C   C30       1.0  0.694119730939942  0.9720643097603532  0.5632311218488737  1.0000
  N   N3        1.0  0.6235167321152554  0.9828782802801779  0.6148340616787071  1.0000
  C   C31       1.0  0.6049769306483361  0.9172134051294603  0.7452689121310083  1.0000
  C   C32       1.0  0.6589400091245368  0.836176924252733  0.8300797138772258  1.0000
  H   H17       1.0  0.013532505985310861  0.46834395744286117  0.3315473874584638  1.0000
  H   H18       1.0  0.8515164180378765  0.672269040243928  0.21764398879702251  1.0000
  H   H19       1.0  0.7579315556385998  0.8162408694556651  0.07137938569065772  1.0000
  H   H20       1.0  0.8388224664507982  0.6404801883140505  0.6867260310574119  1.0000
  H   H21       1.0  0.06747368504334372  0.41902630293448073  0.8005150171859996  1.0000
  H   H22       1.0  0.8060275271107069  0.8860346666798697  0.6026323762993822  1.0000
  H   H23       1.0  0.7071405210920458  0.02601473024175549  0.45914595124733903  1.0000
  H   H24       1.0  0.5482048943562579  0.9276141189141094  0.7831294474675587  1.0000
  H   H25       1.0  0.6430606861977074  0.7830991985048039  0.9329829422353373  1.0000
  Zn  Zn1       1.0  0.8170972058523472  0.5713881295350112  0.4569762053166475  1.0000
  Zn  Zn2       1.0  0.9817170496845171  0.5675330170982351  0.4657200745120833  1.0000
  C   C33       1.0  0.8985076169238251  0.5616857184191266  0.7248829852033793  1.0000
  C   C34       1.0  0.9003084262564048  0.5772372046787857  0.19781353759663345  1.0000
  C   C35       1.0  0.8980520874005543  0.8329021701276453  0.4564461063974963  1.0000
  C   C36       1.0  0.9007639083801832  0.3060190210094076  0.46625048477379294  1.0000
  O   O2        1.0  0.9625795136454468  0.5772824065982174  0.25490056423744667  1.0000
  O   O3        1.0  0.96117918910733  0.558713490599134  0.6744319340714628  1.0000
  O   O4        1.0  0.9608104957961718  0.7777242135193949  0.4576672152951402  1.0000
  O   O5        1.0  0.9629481511115169  0.3582716961433672  0.471665171868082  1.0000
  O   O6        1.0  0.8358660482486927  0.7806494518070681  0.45103110496920995  1.0000
  O   O7        1.0  0.8362347327826886  0.5616404621648561  0.6677957523828182  1.0000
  O   O8        1.0  0.8376350637644616  0.5802093412692555  0.248262647481873  1.0000
  O   O9        1.0  0.8380037008989648  0.3611986196661843  0.46502736326675764  1.0000
