data_image0
_chemical_formula_structural       NC12NC2H8C10H6C12H16Zn2C4O8
_chemical_formula_sum              "N2 C40 H30 Zn2 O8"
_cell_length_a       17.80743265337812
_cell_length_b       10.30283237001006
_cell_length_c       10.298981074953016
_cell_angle_alpha    85.5647705269943
_cell_angle_beta     91.51542336112495
_cell_angle_gamma    89.43531271068052

_space_group_name_H-M_alt    "P 1"
_space_group_IT_number       1

loop_
  _space_group_symop_operation_xyz
  'x, y, z'

loop_
  _atom_site_type_symbol
  _atom_site_label
  _atom_site_symmetry_multiplicity
  _atom_site_fract_x
  _atom_site_fract_y
  _atom_site_fract_z
  _atom_site_occupancy
  N   N1        1.0  0.7076763884710876  0.4061115994582627  0.601328414971716  1.0000
  C   C1        1.0  0.6568690719501501  0.43565433527445174  0.5326285907890367  1.0000
  C   C2        1.0  0.5936597538408077  0.47240335456802907  0.4471746576807416  1.0000
  C   C3        1.0  0.6054094664773033  0.5263945705435336  0.3205528924426362  1.0000
  C   C4        1.0  0.5441070665362687  0.5616407039775353  0.23749496829894712  1.0000
  C   C5        1.0  0.4709007709192161  0.5431589378451824  0.2803988963313828  1.0000
  C   C6        1.0  0.4581741998474358  0.48904900326280254  0.4074888134928214  1.0000
  C   C7        1.0  0.5203339188858906  0.4538061210390114  0.4905302255940629  1.0000
  C   C8        1.0  0.3803991776185307  0.46945374374662996  0.45325308293801436  1.0000
  C   C9        1.0  0.3615903884787384  0.4966450167486547  0.5803014725172289  1.0000
  C   C10       1.0  0.2883541395031111  0.47820481548630633  0.6232459655756655  1.0000
  C   C11       1.0  0.23298356064048031  0.43231923407672457  0.5399800532400592  1.0000
  C   C12       1.0  0.1576104568843215  0.41332652137683223  0.5843254967738027  1.0000
  N   N2        1.0  0.0970158190635493  0.3980576577091921  0.619976182703915  1.0000
  C   C13       1.0  0.25110075989841923  0.4049591565928319  0.4134746432794667  1.0000
  C   C14       1.0  0.3242841994874052  0.4234141121238437  0.3702742568179551  1.0000
  H   H1        1.0  0.661881251452347  0.5412102279214213  0.2861153595983239  1.0000
  H   H2        1.0  0.5533224873939917  0.6037147386871085  0.13971437197412584  1.0000
  H   H3        1.0  0.42427305058037823  0.5727785836779666  0.21480710203527065  1.0000
  H   H4        1.0  0.5118169110834372  0.410347186416004  0.5881863390925866  1.0000
  H   H5        1.0  0.4032548847860118  0.5338198256023416  0.6458772260992629  1.0000
  H   H6        1.0  0.2748931568039624  0.5000539667755213  0.721257977123752  1.0000
  H   H7        1.0  0.2087193037544963  0.36905128721588354  0.3483118861636345  1.0000
  H   H8        1.0  0.3372167423174539  0.40002991268937227  0.2725655511551035  1.0000
  C   C15       1.0  0.9023496690496504  0.02083200024403964  0.6106580541191999  1.0000
  C   C16       1.0  0.9385290119409583  0.02837962923506354  0.4908043143877223  1.0000
  C   C17       1.0  0.9565289181880436  0.9150312412198639  0.4311752149030852  1.0000
  C   C18       1.0  0.938529113815583  0.7930770350877195  0.49080459120445363  1.0000
  C   C19       1.0  0.9023497225880126  0.7833271529779695  0.6106580832360404  1.0000
  C   C20       1.0  0.8844485377078422  0.8978002126372104  0.6699603311964735  1.0000
  C   C21       1.0  0.9936161814492525  0.9238971178190089  0.3083136338897665  1.0000
  C   C22       1.0  0.02466618996550185  0.9313198364827627  0.20545148329152596  1.0000
  C   C23       1.0  0.06102543857167486  0.9400116918221263  0.08500098540772005  1.0000
  C   C24       1.0  0.09207066828387722  0.9474332878102018  0.9821544825047877  1.0000
  H   H9        1.0  0.888649248243239  0.34529618410378937  0.6560445535246178  1.0000
  H   H10       1.0  0.9528010203775887  0.12220969178823116  0.4435243945005978  1.0000
  H   H11       1.0  0.9528012563031695  0.7060705810527184  0.4435244744739375  1.0000
  H   H12       1.0  0.8565473382403695  0.891130490200831  0.7623900153169576  1.0000
  H   H13       1.0  0.8886490360043716  0.4523125770423762  0.6560443540310212  1.0000
  H   H14       1.0  0.11933094066322569  0.9539501894753506  0.8918466845023616  1.0000
  C   C25       1.0  0.9024218602453506  0.4020509313824461  0.2292733003324361  1.0000
  C   C26       1.0  0.9754480345638906  0.34870185748845883  0.23557031091498315  1.0000
  C   C27       1.0  0.012468870502050144  0.3219816700600102  0.12150788340899332  1.0000
  C   C28       1.0  0.9752722479391501  0.34876013287128416  0.0002718535512731268  1.0000
  C   C29       1.0  0.902277512485395  0.40210817250368436  0.9920427881440359  1.0000
  C   C30       1.0  0.866304619335332  0.42852865929643214  0.10709622371215155  1.0000
  C   C31       1.0  0.0913714185992145  0.26402355941940847  0.12813817328611776  1.0000
  C   C32       1.0  0.09295573072442864  0.1239408368140189  0.1953349790038763  1.0000
  C   C33       1.0  0.17008436065011256  0.08377342573369462  0.2584183945628691  1.0000
  C   C34       1.0  0.2347251186495991  0.15183305225644927  0.1863700545726774  1.0000
  C   C35       1.0  0.22893131652481635  0.30124009244136407  0.18759407318447985  1.0000
  C   C36       1.0  0.14753809555636477  0.35249852246306745  0.19437306104178464  1.0000
  H   H15       1.0  0.7644465116063651  0.5022392134304077  0.42473707304810726  1.0000
  H   H16       1.0  0.003585238310466865  0.32734773504383186  0.3293748110294268  1.0000
  H   H17       1.0  0.0033978815079953595  0.32792313860121336  0.912126400893587  1.0000
  H   H18       1.0  0.8100020068321214  0.46967223070734043  0.1014509766421623  1.0000
  H   H19       1.0  0.8740844154246055  0.42226707679790176  0.6614173471683427  1.0000
  H   H20       1.0  0.110883695855029  0.2571783323776875  0.026957894536486338  1.0000
  H   H21       1.0  0.07771657666289733  0.05498955117442583  0.12125748790761826  1.0000
  H   H22       1.0  0.05034468545752113  0.11276634784258532  0.2722263960586051  1.0000
  H   H23       1.0  0.17201847870956222  0.10921621896871758  0.3614725092127071  1.0000
  H   H24       1.0  0.17762847295396367  0.9765090040143949  0.25904028784232613  1.0000
  H   H25       1.0  0.23367256590857344  0.12448951216573967  0.08394563443125347  1.0000
  H   H26       1.0  0.28923082009850365  0.11716659288092002  0.23220158115851586  1.0000
  H   H27       1.0  0.25497936835706714  0.3460839489962406  0.098253971932585  1.0000
  H   H28       1.0  0.2618774476119283  0.3329554145483695  0.2724950230007077  1.0000
  H   H29       1.0  0.1334010604105449  0.3575113251366768  0.2983876528191536  1.0000
  H   H30       1.0  0.14373883121022324  0.4530706060993086  0.14676177763452558  1.0000
  Zn  Zn1       1.0  0.8200313398672228  0.4037839401842127  0.6067172451687342  1.0000
  Zn  Zn2       1.0  0.9846608631682836  0.40037472755159365  0.6145979459978881  1.0000
  C   C37       1.0  0.9023031387599963  0.39692531924470753  0.8478629772541864  1.0000
  C   C38       1.0  0.902390862000791  0.4072349493918255  0.37345242744124607  1.0000
  C   C39       1.0  0.9023468284032317  0.6391990216636065  0.6054825020191479  1.0000
  C   C40       1.0  0.9023471161677863  0.16495968831491203  0.61583296922861  1.0000
  O   O1        1.0  0.9648565048250944  0.4076753107527131  0.42483094448541836  1.0000
  O   O2        1.0  0.964787494923994  0.39389646492780317  0.8024653559307326  1.0000
  O   O3        1.0  0.9648219324009345  0.5895355611423803  0.6067413669799604  1.0000
  O   O4        1.0  0.9648220111896753  0.2120362249815444  0.6205548333683262  1.0000
  O   O5        1.0  0.8398701356658558  0.592122443919072  0.6007603551021687  1.0000
  O   O6        1.0  0.8398356981987095  0.39648490752731913  0.7964842748044878  1.0000
  O   O7        1.0  0.8399047084452185  0.41026370799177725  0.41884830189597966  1.0000
  O   O8        1.0  0.8398702147883026  0.21462461294200996  0.6145722881506241  1.0000
