data_image0
_chemical_formula_structural       NC12NC2H8C12H10C7NC2OH7Zn2C4O8
_chemical_formula_sum              "N3 C39 H25 O9 Zn2"
_cell_length_a       17.80743265337812
_cell_length_b       10.299137764757564
_cell_length_c       10.300337369960102
_cell_angle_alpha    85.54027167930182
_cell_angle_beta     91.53453705670806
_cell_angle_gamma    89.45463381285008

_space_group_name_H-M_alt    "P 1"
_space_group_IT_number       1

loop_
  _space_group_symop_operation_xyz
  'x, y, z'

loop_
  _atom_site_type_symbol
  _atom_site_label
  _atom_site_symmetry_multiplicity
  _atom_site_fract_x
  _atom_site_fract_y
  _atom_site_fract_z
  _atom_site_occupancy
  N   N1        1.0  0.7076722898100347  0.4067562771824411  0.6010031583394162  1.0000
  C   C1        1.0  0.6568572792973552  0.43631556007893946  0.5323010936800974  1.0000
  C   C2        1.0  0.5936383911293981  0.47308516245984045  0.44684437315357584  1.0000
  C   C3        1.0  0.6053738357358889  0.527106700867878  0.3202186381423169  1.0000
  C   C4        1.0  0.5440620444918579  0.562372659529693  0.23715816894400832  1.0000
  C   C5        1.0  0.47086054781579595  0.543880547311939  0.28006350728534235  1.0000
  C   C6        1.0  0.45814831286350516  0.4897402091334384  0.4071573807815232  1.0000
  C   C7        1.0  0.5203174206259317  0.4544775041864628  0.4902013387366857  1.0000
  C   C8        1.0  0.3803784320091698  0.47013395916290834  0.45292311332083357  1.0000
  C   C9        1.0  0.3615993840221493  0.4973259310471503  0.5799472090962978  1.0000
  C   C10       1.0  0.288367949717464  0.4788753965009467  0.6228930932789212  1.0000
  C   C11       1.0  0.23297255836499922  0.4329786217299274  0.539652856275137  1.0000
  C   C12       1.0  0.15760443564483032  0.4139752574132327  0.58399971926777  1.0000
  N   N2        1.0  0.0970138022287908  0.39869783056726327  0.6196515463553376  1.0000
  C   C13       1.0  0.25106008954493525  0.40561773932702905  0.4131717353438549  1.0000
  C   C14       1.0  0.3242386677399395  0.4240830533275224  0.3699699825282339  1.0000
  H   H1        1.0  0.6618417651552003  0.5419306554188517  0.28577997990486237  1.0000
  H   H2        1.0  0.5532665193670177  0.6044702556006067  0.13937437477790438  1.0000
  H   H3        1.0  0.4242257495276218  0.5735165322934885  0.21446908265226505  1.0000
  H   H4        1.0  0.511811072167191  0.41099448795711524  0.5878611459214036  1.0000
  H   H5        1.0  0.4032836180563829  0.5345099521664518  0.6455023814989598  1.0000
  H   H6        1.0  0.2749300763311982  0.5007254206291105  0.7208860601055496  1.0000
  H   H7        1.0  0.20865921578275884  0.3697011107743431  0.34802907084889534  1.0000
  H   H8        1.0  0.3371478689382809  0.40069737070548794  0.27228081963212336  1.0000
  C   C15       1.0  0.9022743346045358  0.02132858848528696  0.6104656054724784  1.0000
  C   C16       1.0  0.9022404427003758  0.031182136291766138  0.4737282186949414  1.0000
  C   C17       1.0  0.9022975173913343  0.9190450082080155  0.4042604366886877  1.0000
  C   C18       1.0  0.9023888969652863  0.7959238731123714  0.4733782341021633  1.0000
  C   C19       1.0  0.9024189397873789  0.7841153989814758  0.6102006517676697  1.0000
  C   C20       1.0  0.9023627331365637  0.8973352464023616  0.6779020616105502  1.0000
  C   C21       1.0  0.9022607733944309  0.9305140202380027  0.2596057483354999  1.0000
  C   C22       1.0  0.947569875795359  0.847261463095411  0.19191741050347555  1.0000
  C   C23       1.0  0.9474419192921031  0.8583094817207908  0.055750569745214085  1.0000
  C   C24       1.0  0.9021933183227374  0.9522332784531732  0.9857418180099442  1.0000
  C   C25       1.0  0.8569782866871819  0.03536955161762423  0.05175767731625491  1.0000
  C   C26       1.0  0.8569173447462058  0.024820339564791016  0.18791634786228384  1.0000
  H   H9        1.0  0.9022490314704753  0.34501499299299976  0.6630620101468716  1.0000
  H   H10       1.0  0.9032092036518559  0.12628865495249908  0.42097847112206854  1.0000
  H   H11       1.0  0.9013981478656481  0.7091753887199256  0.42028817615924896  1.0000
  H   H12       1.0  0.9023868180648558  0.8890194919364267  0.7833706472027082  1.0000
  H   H13       1.0  0.901997942858928  0.5545458446126572  0.8684229076407741  1.0000
  H   H14       1.0  0.9837800834524031  0.7748478120498722  0.24426864390031033  1.0000
  H   H15       1.0  0.9826151603904524  0.7941725985229524  0.004486719629503311  1.0000
  H   H16       1.0  0.9021674417301578  0.9605922357502373  0.8803428665130526  1.0000
  H   H17       1.0  0.8217791227968002  0.10788404268060359  0.9973863975935742  1.0000
  H   H18       1.0  0.8207323924482854  0.089185637777073  0.23706449911273286  1.0000
  C   C27       1.0  0.9023449921516673  0.40272246858018756  0.2289929245516955  1.0000
  C   C28       1.0  0.9798389821565676  0.37549533127934587  0.2336826874473703  1.0000
  C   C29       1.0  0.018937501895497366  0.36175803492541836  0.11896034571284742  1.0000
  C   C30       1.0  0.9798458072892094  0.37549358248195963  0.9983907235367306  1.0000
  C   C31       1.0  0.9023482777841135  0.40272147781920986  0.9916732747406813  1.0000
  C   C32       1.0  0.864030136566984  0.41618378735000117  0.1075119176564161  1.0000
  C   C33       1.0  0.1005051604353826  0.333097155299775  0.1256397677882286  1.0000
  N   N3        1.0  0.1423286229252263  0.3184003910443973  0.020140280858683024  1.0000
  C   C34       1.0  0.2118333110333641  0.2939772564453178  0.07138305926564059  1.0000
  C   C35       1.0  0.20985754495776887  0.2946721384328781  0.20470553832863203  1.0000
  O   O1        1.0  0.1404986314466654  0.3190442703744476  0.23511804609987919  1.0000
  H   H19       1.0  0.872824493531224  0.4131062741606719  0.5546329409213051  1.0000
  H   H20       1.0  0.009922064652341245  0.3649250353763096  0.3267730321063045  1.0000
  H   H21       1.0  0.009865086218532326  0.3649465758013082  0.9096807325253531  1.0000
  H   H22       1.0  0.804255904831181  0.43718509510633985  0.10311104100135426  1.0000
  H   H23       1.0  0.8728110831193244  0.413106375379793  0.6616842590937946  1.0000
  H   H24       1.0  0.2608061776420634  0.27676848860858305  0.01495419913938445  1.0000
  H   H25       1.0  0.25654763548073656  0.2782660946804054  0.27356827858670485  1.0000
  Zn  Zn1       1.0  0.8200278427681706  0.40442731600388115  0.6063921678665716  1.0000
  Zn  Zn2       1.0  0.9846582448140201  0.4010161974545159  0.6142731327616622  1.0000
  C   C36       1.0  0.9023450076066334  0.3975476559144391  0.8475121089302338  1.0000
  C   C37       1.0  0.9023428780456585  0.40789745904075403  0.3731534046454934  1.0000
  C   C38       1.0  0.9023877223109917  0.6399325426644065  0.6050757540714038  1.0000
  C   C39       1.0  0.9023001068689197  0.16551101303147253  0.6155898265905606  1.0000
  O   O2        1.0  0.9648185470560047  0.40833406522172333  0.4245257657611723  1.0000
  O   O3        1.0  0.9648200042735163  0.39452110988463307  0.8021208443392829  1.0000
  O   O4        1.0  0.9648536547318427  0.5902499887593258  0.6063517317264384  1.0000
  O   O5        1.0  0.9647848404218144  0.2126051968020759  0.620294778314215  1.0000
  O   O6        1.0  0.8399011909801001  0.5928383178217824  0.6003705196178013  1.0000
  O   O7        1.0  0.8398675408138778  0.3971109993718651  0.7961395624481911  1.0000
  O   O8        1.0  0.839866083631003  0.4109239094503969  0.41854292260508674  1.0000
  O   O9        1.0  0.8398323769924003  0.21519503174116572  0.6143120325217142  1.0000
