data_image0
_chemical_formula_structural       NC12NC2H8C6NCOCH9C7NC2OH7Zn2C4O8
_chemical_formula_sum              "N4 C35 H24 O10 Zn2"
_cell_length_a       17.80743265337812
_cell_length_b       10.300268703208216
_cell_length_c       10.300337369960102
_cell_angle_alpha    85.56032773723844
_cell_angle_beta     91.53453705670806
_cell_angle_gamma    89.41550465668445

_space_group_name_H-M_alt    "P 1"
_space_group_IT_number       1

loop_
  _space_group_symop_operation_xyz
  'x, y, z'

loop_
  _atom_site_type_symbol
  _atom_site_label
  _atom_site_symmetry_multiplicity
  _atom_site_fract_x
  _atom_site_fract_y
  _atom_site_fract_z
  _atom_site_occupancy
  N   N1        1.0  0.7071240752017235  0.406574886696335  0.6014707480035135  1.0000
  C   C1        1.0  0.6562975454010492  0.4361303581488891  0.5327785085110583  1.0000
  C   C2        1.0  0.5930643280749474  0.47289521937017476  0.4473340097789622  1.0000
  C   C3        1.0  0.6047787204231336  0.526909792113107  0.3207262309079446  1.0000
  C   C4        1.0  0.5434531859927183  0.5621712034986897  0.2376774837101221  1.0000
  C   C5        1.0  0.4702588957149649  0.5436814756976807  0.2805766754852874  1.0000
  C   C6        1.0  0.4575677593173916  0.4895481185026094  0.40765255335354444  1.0000
  C   C7        1.0  0.5197506089982258  0.4542899604123245  0.4906847903897191  1.0000
  C   C8        1.0  0.3798055190421832  0.4699443966083854  0.4534117690000665  1.0000
  C   C9        1.0  0.3610158743111085  0.4971328622953719  0.5804449030753458  1.0000
  C   C10       1.0  0.28779163020186327  0.47868470680479036  0.6233846545117423  1.0000
  C   C11       1.0  0.2324141248775698  0.4327938500726112  0.5401291619460347  1.0000
  C   C12       1.0  0.1570534077912654  0.41379293609471834  0.5844697084381607  1.0000
  N   N2        1.0  0.0964687280067897  0.39851747915634883  0.6201164574841356  1.0000
  C   C13       1.0  0.2505123186261916  0.40543649564669026  0.41363894657101685  1.0000
  C   C14       1.0  0.3236837008661846  0.4238994286858637  0.370443331414144  1.0000
  H   H1        1.0  0.6612408729295782  0.5417318352282723  0.28629249998308937  1.0000
  H   H2        1.0  0.5526412553842025  0.6042633714058625  0.13990768230248274  1.0000
  H   H3        1.0  0.4236125482479015  0.5733136393451381  0.21499210151396797  1.0000
  H   H4        1.0  0.5112612059230579  0.4108125509860743  0.5883301443181888  1.0000
  H   H5        1.0  0.40268561768771804  0.5343120888189246  0.6460124350204726  1.0000
  H   H6        1.0  0.2743452418349904  0.500531913539094  0.721384884035974  1.0000
  H   H7        1.0  0.2081254416172361  0.3695244982691539  0.3484843438003571  1.0000
  H   H8        1.0  0.3366020154930899  0.4005167614691325  0.27274639538514656  1.0000
  C   C15       1.0  0.901876321628745  0.021196895958198736  0.6108050833901306  1.0000
  C   C16       1.0  0.9145412118523158  0.030321196088807678  0.47642468145977834  1.0000
  C   C17       1.0  0.9219478839703995  0.9175973447624788  0.4090367827023498  1.0000
  C   C18       1.0  0.9143712574514392  0.7951651943191016  0.4764489381932875  1.0000
  C   C19       1.0  0.9017236615829098  0.7838853755917408  0.6107936416241111  1.0000
  C   C20       1.0  0.8958257852851559  0.8974967285440948  0.6773548950814778  1.0000
  N   N3        1.0  0.9337447647903027  0.9253729760463378  0.2710725776525409  1.0000
  C   C21       1.0  0.9778485931968809  0.023568088019895406  0.20340869921064875  1.0000
  O   O1        1.0  0.020269023471112257  0.09568549674361781  0.265405750854957  1.0000
  C   C22       1.0  0.9778790386312046  0.03445377298894847  0.05794183736446956  1.0000
  H   H9        1.0  0.8959687104028975  0.3451991410127928  0.6615393049893641  1.0000
  H   H10       1.0  0.9171573759532664  0.12511641850031374  0.42372202288491034  1.0000
  H   H11       1.0  0.919034612550509  0.708706575887035  0.42351668598549574  1.0000
  H   H12       1.0  0.8860782087383378  0.8896496901670531  0.7810051093377239  1.0000
  H   H13       1.0  0.89582037426982  0.4522502596918868  0.6613400409524288  1.0000
  H   H14       1.0  0.9130512759529714  0.8503773119216951  0.21790507533704973  1.0000
  H   H15       1.0  0.9203801318617068  0.018608723223360712  0.018372182268952653  1.0000
  H   H16       1.0  0.9965043419408159  0.13272835100694813  0.020968831624991413  1.0000
  H   H17       1.0  0.016655873715467617  0.9599258677211323  0.024052290612874838  1.0000
  C   C23       1.0  0.9017983495234058  0.40254159822291613  0.22945917342404298  1.0000
  C   C24       1.0  0.9793029499763651  0.3753179716536419  0.23413988633132177  1.0000
  C   C25       1.0  0.018406823156158936  0.36158244661924144  0.11941297847693066  1.0000
  C   C26       1.0  0.9793097757905155  0.3753162230817497  0.9988479218394022  1.0000
  C   C27       1.0  0.9018016355419527  0.40254060758968957  0.9921395232837114  1.0000
  C   C28       1.0  0.8634782480466542  0.4160011812584059  0.10798264091684673  1.0000
  C   C29       1.0  0.09998565087520661  0.33292526259529653  0.12608287400439822  1.0000
  N   N4        1.0  0.14181484071170591  0.31823039337550973  0.020578502038849367  1.0000
  C   C30       1.0  0.21132904654468776  0.2938104079532484  0.07181316247577296  1.0000
  C   C31       1.0  0.20935300967274806  0.29450520034107974  0.20513587250957377  1.0000
  O   O2        1.0  0.13998459831259824  0.318874189682234  0.23555648129815543  1.0000
  H   H18       1.0  0.8722738043214747  0.4129240648909158  0.5551026412516218  1.0000
  H   H19       1.0  0.009390151729128604  0.36474903870959396  0.3272267175450412  1.0000
  H   H20       1.0  0.009333164900990454  0.3647705763571192  0.9101344251238799  1.0000
  H   H21       1.0  0.8036958320760319  0.4369997810563837  0.10358874485579284  1.0000
  H   H22       1.0  0.8722603938701299  0.412924166096986  0.6621539594577555  1.0000
  H   H23       1.0  0.2603086194308508  0.2766038590557951  0.015378582352313153  1.0000
  H   H24       1.0  0.2560494936506412  0.2781012720227438  0.27399315958672776  1.0000
  Zn  Zn1       1.0  0.8194805357588235  0.40424622581954517  0.6068589834106639  1.0000
  Zn  Zn2       1.0  0.9841122671216624  0.40083554710788416  0.6147388144890429  1.0000
  C   C32       1.0  0.9018003816090737  0.3973674528097684  0.8479766377541584  1.0000
  C   C33       1.0  0.9017942187174084  0.4077159214079562  0.37362137362536085  1.0000
  C   C34       1.0  0.9017486386323785  0.6397210858783802  0.6056208488537791  1.0000
  C   C35       1.0  0.9018459058293682  0.1653607292810848  0.615977229093698  1.0000
  O   O3        1.0  0.964269717581802  0.4081524712918907  0.42499387986393056  1.0000
  O   O4        1.0  0.9642765577245742  0.39434129702997556  0.8025843671739936  1.0000
  O   O5        1.0  0.9642339324040695  0.5900449381594666  0.6068803125972932  1.0000
  O   O6        1.0  0.9643122867223686  0.21244884061609648  0.6206978343843041  1.0000
  O   O7        1.0  0.8392804599773871  0.592632933476644  0.6008999608195724  1.0000
  O   O8        1.0  0.8393230849818963  0.3969308525707236  0.7966039461324854  1.0000
  O   O9        1.0  0.8393162448913983  0.41074198157991515  0.4190118975423853  1.0000
  O   O10       1.0  0.8393588140311727  0.21503834161573554  0.6147159494232557  1.0000
