data_image0
_chemical_formula_structural       NC12NC2H8C9H10C10H6Zn2C4O8
_chemical_formula_sum              "N2 C37 H24 Zn2 O8"
_cell_length_a       17.80743265337812
_cell_length_b       10.297183801781406
_cell_length_c       10.302835742178797
_cell_angle_alpha    85.5339861833621
_cell_angle_beta     91.5341157365678
_cell_angle_gamma    89.4353606467078

_space_group_name_H-M_alt    "P 1"
_space_group_IT_number       1

loop_
  _space_group_symop_operation_xyz
  'x, y, z'

loop_
  _atom_site_type_symbol
  _atom_site_label
  _atom_site_symmetry_multiplicity
  _atom_site_fract_x
  _atom_site_fract_y
  _atom_site_fract_z
  _atom_site_occupancy
  N   N1        1.0  0.7074018539612426  0.407039199303491  0.6011731059710068  1.0000
  C   C1        1.0  0.6565813285569684  0.4366043747069801  0.5324841555586883  1.0000
  C   C2        1.0  0.5933555802485505  0.4733813069437507  0.44704374731462426  1.0000
  C   C3        1.0  0.6050809505819442  0.5274136128739533  0.3204422388033341  1.0000
  C   C4        1.0  0.5437625844174232  0.5626866001838813  0.23739768150099594  1.0000
  C   C5        1.0  0.47056453814154603  0.544190801549745  0.28029483367855357  1.0000
  C   C6        1.0  0.45786239880807533  0.49003967242267565  0.4073643813461125  1.0000
  C   C7        1.0  0.520038080922104  0.45476993946427946  0.4903924310215946  1.0000
  C   C8        1.0  0.3800961750640494  0.4704295142983832  0.4531213676509134  1.0000
  C   C9        1.0  0.361311242709805  0.4976271601643558  0.5801113420168875  1.0000
  C   C10       1.0  0.2880832504631723  0.4791729476728195  0.6230490251751877  1.0000
  C   C11       1.0  0.23269723192171624  0.4332667706165312  0.5398345357776029  1.0000
  C   C12       1.0  0.15733265390634874  0.41425961830506375  0.5841729242931533  1.0000
  N   N2        1.0  0.0967448701948626  0.3989791461659664  0.6198179384876603  1.0000
  C   C13       1.0  0.2507906783413131  0.40590018076069545  0.41338742480301494  1.0000
  C   C14       1.0  0.3239658126654428  0.42436917535766483  0.37019393335215267  1.0000
  H   H1        1.0  0.6615461142224102  0.5422405225325051  0.2860101536182269  1.0000
  H   H2        1.0  0.5529592048652747  0.6047925882967011  0.13963254975699257  1.0000
  H   H3        1.0  0.4239241966397648  0.573832698705482  0.21471275952018232  1.0000
  H   H4        1.0  0.511539859628621  0.4112782505615322  0.5880337730347713  1.0000
  H   H5        1.0  0.402987891238779  0.5348187961899187  0.6456461118226455  1.0000
  H   H6        1.0  0.2746406660963372  0.5010275256807384  0.7210155636868463  1.0000
  H   H7        1.0  0.2083971393063696  0.36997619442389884  0.34826490984276903  1.0000
  H   H8        1.0  0.3368800252771666  0.4009786283797665  0.272531310282071  1.0000
  C   C15       1.0  0.9020795877660804  0.02153349670629323  0.6106797564772954  1.0000
  C   C16       1.0  0.8998894810619439  0.03143880528464238  0.4739575630545554  1.0000
  C   C17       1.0  0.8987672515794943  0.9198971007362347  0.4039107768624961  1.0000
  C   C18       1.0  0.8998806798871332  0.7962678945998836  0.4734276331059488  1.0000
  C   C19       1.0  0.9020743403204632  0.784474731882617  0.6103227976473151  1.0000
  C   C20       1.0  0.9031587613161067  0.8975839724064566  0.6780552048310866  1.0000
  C   C21       1.0  0.896398288671732  0.9400425905044025  0.25603606056118  1.0000
  C   C22       1.0  0.8524079763119105  0.842236339069312  0.1816581031946507  1.0000
  C   C23       1.0  0.9379972891308345  0.8407727148860423  0.1816325128587033  1.0000
  H   H9        1.0  0.9029306396873735  0.34525496990908877  0.6633635446011206  1.0000
  H   H10       1.0  0.8990441368036182  0.1266851629635266  0.4211752607695691  1.0000
  H   H11       1.0  0.8990569880614497  0.7086852359917759  0.4221109978618054  1.0000
  H   H12       1.0  0.9048480980803013  0.8892143837635466  0.7835392300927102  1.0000
  H   H13       1.0  0.9062075674974738  0.5549845248571492  0.8688787390023798  1.0000
  H   H14       1.0  0.8956375520729654  0.04077389870140502  0.20850656021637803  1.0000
  H   H15       1.0  0.827338676424679  0.7591178107785581  0.23954028337230948  1.0000
  H   H16       1.0  0.825903615732588  0.8836579836926864  0.08853395921118246  1.0000
  H   H17       1.0  0.9649189006180137  0.7567659132146661  0.23949982602656816  1.0000
  H   H18       1.0  0.961516115274196  0.8813365682577519  0.08849221457708367  1.0000
  C   C24       1.0  0.9020769351831663  0.4030040785565294  0.22925368094875131  1.0000
  C   C25       1.0  0.865490471102434  0.5249898773147534  0.21696603070044151  1.0000
  C   C26       1.0  0.8472882191760734  0.5856799594552022  0.09374926012949136  1.0000
  C   C27       1.0  0.8654906614787278  0.5249899331734551  0.981663486601958  1.0000
  C   C28       1.0  0.9020769709739026  0.4030041596524814  0.9917488766211466  1.0000
  C   C29       1.0  0.9201795209774616  0.3426467922445833  0.11603623508591299  1.0000
  C   C30       1.0  0.8097835377430691  0.7107271189694215  0.08228211130331897  1.0000
  C   C31       1.0  0.7783838161983027  0.8154188106572637  0.07268149330585172  1.0000
  C   C32       1.0  0.7416150626723672  0.9380117522775893  0.06143934606785084  1.0000
  C   C33       1.0  0.7102200604132132  0.04268738270532113  0.05184033029954627  1.0000
  H   H19       1.0  0.9159315945691497  0.3568103717028781  0.5612290342322721  1.0000
  H   H20       1.0  0.8510578088216356  0.573110986295075  0.30297136762174515  1.0000
  H   H21       1.0  0.851058028004627  0.5731111239269089  0.8868325004120883  1.0000
  H   H22       1.0  0.9483944540005723  0.24857275473345508  0.12466317568637408  1.0000
  H   H23       1.0  0.9159313819707718  0.3568101167891158  0.668245670756022  1.0000
  H   H24       1.0  0.6826526248425203  0.13460131204379566  0.04341161625256751  1.0000
  Zn  Zn1       1.0  0.8197578415372462  0.40470977382528117  0.6065610880582846  1.0000
  Zn  Zn2       1.0  0.984388880198622  0.4012979752222603  0.6144405510393982  1.0000
  C   C34       1.0  0.9020753299261484  0.39782904219114346  0.8476233165006952  1.0000
  C   C35       1.0  0.9020731895642489  0.4081803086776865  0.3733785352995622  1.0000
  C   C36       1.0  0.9020714543042372  0.6402626747300331  0.6052165808147658  1.0000
  C   C37       1.0  0.9020770090198588  0.16574511656391389  0.615785338243561  1.0000
  O   O1        1.0  0.9645485537295236  0.4086170716761899  0.4247383708050543  1.0000
  O   O2        1.0  0.9645511148086614  0.39480182299996525  0.8022434378108634  1.0000
  O   O3        1.0  0.9645471429802959  0.590570064720964  0.6064982427345649  1.0000
  O   O4        1.0  0.9645524693803978  0.2128488404122193  0.620483465844583  1.0000
  O   O5        1.0  0.8395941961749765  0.5931589098010157  0.6005181705573963  1.0000
  O   O6        1.0  0.8395981679891495  0.39739222882059355  0.796263295679922  1.0000
  O   O7        1.0  0.8395956069601985  0.4112074322270176  0.41875666779364584  1.0000
  O   O8        1.0  0.8395995226080704  0.21543919167171244  0.6145018601742411  1.0000
