data_image0
_chemical_formula_structural       NC12NC2H8C6NCSNH8C12H16Zn2C4O8
_chemical_formula_sum              "N4 C37 H32 S1 Zn2 O8"
_cell_length_a       17.80743265337812
_cell_length_b       9.27507834575679
_cell_length_c       10.298981074953016
_cell_angle_alpha    85.38635010332374
_cell_angle_beta     91.51542336112495
_cell_angle_gamma    90.00966593732542

_space_group_name_H-M_alt    "P 1"
_space_group_IT_number       1

loop_
  _space_group_symop_operation_xyz
  'x, y, z'

loop_
  _atom_site_type_symbol
  _atom_site_label
  _atom_site_symmetry_multiplicity
  _atom_site_fract_x
  _atom_site_fract_y
  _atom_site_fract_z
  _atom_site_occupancy
  N   N1        1.0  0.7157699909511659  0.5621967557938863  0.59731182169471  1.0000
  C   C1        1.0  0.6651327229242185  0.5950188774996648  0.5285276079414518  1.0000
  C   C2        1.0  0.6021349328001439  0.6358472148387158  0.4429687003319236  1.0000
  C   C3        1.0  0.6141954198016972  0.6958317156925564  0.31619270782253484  1.0000
  C   C4        1.0  0.5530958972091493  0.734990339606967  0.23303410220900633  1.0000
  C   C5        1.0  0.4797832202292927  0.7144570084656641  0.2759908238729172  1.0000
  C   C6        1.0  0.46674519144611765  0.6543406106680918  0.40323530742833635  1.0000
  C   C7        1.0  0.5287020518501075  0.6151855988638766  0.4863773917122538  1.0000
  C   C8        1.0  0.3888573785673957  0.6325701830171875  0.44905555122696184  1.0000
  C   C9        1.0  0.3702051028613099  0.6627798182168647  0.5760262682484829  1.0000
  C   C10       1.0  0.2968627117709831  0.6422926658462238  0.6190234362072939  1.0000
  C   C11       1.0  0.2412280147148608  0.5913135640143476  0.5358885971932303  1.0000
  C   C12       1.0  0.1657455885786927  0.5702125687768942  0.5802882938902165  1.0000
  N   N2        1.0  0.10506306291680191  0.5532487877402845  0.6159825957148131  1.0000
  C   C13       1.0  0.2591877288976007  0.5609163862227178  0.4094613419845954  1.0000
  C   C14       1.0  0.3324773955271096  0.5814199306568679  0.3662082384767693  1.0000
  H   H1        1.0  0.6707524839546837  0.7122919823595881  0.28171285367894505  1.0000
  H   H2        1.0  0.5625534969321937  0.7817347947069586  0.13513332034200176  1.0000
  H   H3        1.0  0.4333259910798197  0.7473645775701128  0.21031442031082248  1.0000
  H   H4        1.0  0.5199348936746809  0.5669025132933729  0.5841576467545209  1.0000
  H   H5        1.0  0.41208357800586093  0.7040812098068789  0.6414958310506576  1.0000
  H   H6        1.0  0.283527493161349  0.6665671781068518  0.7169730351032049  1.0000
  H   H7        1.0  0.21659958644175523  0.521022570490203  0.3444011566040275  1.0000
  H   H8        1.0  0.3452753385041948  0.5554399725173842  0.2685663303698673  1.0000
  C   C15       1.0  0.9082255955494399  0.1341492663926771  0.6077420217426002  1.0000
  C   C16       1.0  0.8835815124647036  0.21746219293421531  0.4946615066380813  1.0000
  C   C17       1.0  0.8664213244803538  0.1527477227024734  0.3799308194895239  1.0000
  C   C18       1.0  0.8743356979411935  0.0029916820211661754  0.3750524413448928  1.0000
  C   C19       1.0  0.8962653428353342  0.9182526972457711  0.4883627223074012  1.0000
  C   C20       1.0  0.9126145793462925  0.9812850612098837  0.6055639297042736  1.0000
  N   N3        1.0  0.8559405136923631  0.9339732210662756  0.25828946101799044  1.0000
  C   C21       1.0  0.8656645121856857  0.00026554665736600036  0.12902048565503854  1.0000
  S   S1        1.0  0.8166113359087142  0.9414643298792456  0.00745647315661091  1.0000
  N   N4        1.0  0.92341430937777  0.10492117878605467  0.10268215713259421  1.0000
  H   H9        1.0  0.9129642089451796  0.39619031006660266  0.8225774082843667  1.0000
  H   H10       1.0  0.8788962473721568  0.3339592036841086  0.4941509002739981  1.0000
  H   H11       1.0  0.8467475383661515  0.21988006601522847  0.29502528279544493  1.0000
  H   H12       1.0  0.8993810062997263  0.8018971898407147  0.485202983356815  1.0000
  H   H13       1.0  0.9783804338161038  0.6838242829235122  0.7909605159123558  1.0000
  H   H14       1.0  0.8347513279803773  0.8286364505314113  0.2679906711193554  1.0000
  H   H15       1.0  0.962074986748658  0.13008889209058316  0.17532721012698294  1.0000
  H   H16       1.0  0.930015928606524  0.153031081048552  0.00848216799371393  1.0000
  C   C22       1.0  0.9104920894503475  0.5576853340142491  0.22526830645628793  1.0000
  C   C23       1.0  0.9832111855846631  0.4984142561041427  0.2317177100150538  1.0000
  C   C24       1.0  0.02007821966575607  0.46872799924443864  0.1177316093989258  1.0000
  C   C25       1.0  0.9830357343940256  0.4984790003349897  0.9964190861862421  1.0000
  C   C26       1.0  0.9103480711712673  0.557748929175494  0.9880376307571801  1.0000
  C   C27       1.0  0.874527254796272  0.5871022171862237  0.10301559553786421  1.0000
  C   C28       1.0  0.0986471598841423  0.4043362593216795  0.12452745808207766  1.0000
  C   C29       1.0  0.09942515345574243  0.2487036801713285  0.19212441363293475  1.0000
  C   C30       1.0  0.1763225790744114  0.20407749310161272  0.25532256841558665  1.0000
  C   C31       1.0  0.24135508945132678  0.27969206579652117  0.18307981438426735  1.0000
  C   C32       1.0  0.23642127681204927  0.4456840066634946  0.18387704801443983  1.0000
  C   C33       1.0  0.15532310024584106  0.502632369167469  0.19050961487251938  1.0000
  H   H17       1.0  0.7730934262809723  0.6689949976598581  0.42044588881533085  1.0000
  H   H18       1.0  0.011225474636243238  0.47468972327284065  0.3255832087192825  1.0000
  H   H19       1.0  0.011041429866516017  0.4753289993949916  0.9083331549286568  1.0000
  H   H20       1.0  0.8184614653956791  0.6328129230822974  0.09725282081759223  1.0000
  H   H21       1.0  0.882271009109303  0.5801455688881021  0.6573546053625186  1.0000
  H   H22       1.0  0.11812003589571463  0.39673117912650224  0.023366732896278553  1.0000
  H   H23       1.0  0.08378911461161453  0.17209846990530875  0.11824388362457872  1.0000
  H   H24       1.0  0.056749787638682214  0.2362887691318678  0.26904775089747757  1.0000
  H   H25       1.0  0.178403146288044  0.23234455886324978  0.3583040050843205  1.0000
  H   H26       1.0  0.18324927552735404  0.08490620421774508  0.25625086522326024  1.0000
  H   H27       1.0  0.24014514682462074  0.2493132611283253  0.08073350175532035  1.0000
  H   H28       1.0  0.29566125016556577  0.2411774625515315  0.22901036658636542  1.0000
  H   H29       1.0  0.26272745065166325  0.4955057471670963  0.09440884915434489  1.0000
  H   H30       1.0  0.2695499618370998  0.4809198821968521  0.2686874022125094  1.0000
  H   H31       1.0  0.14121491887817506  0.508201617068677  0.2945098874525176  1.0000
  H   H32       1.0  0.15210273053783374  0.6143684382252159  0.14261104476970754  1.0000
  Zn  Zn1       1.0  0.8281115443006021  0.5596107151354381  0.6027073009091997  1.0000
  Zn  Zn2       1.0  0.9927214441152847  0.5558230634891954  0.610597740240294  1.0000
  C   C34       1.0  0.9103438648536287  0.5519907542553464  0.8438726248184907  1.0000
  C   C35       1.0  0.9104909305023512  0.5634448029777006  0.36943262528679943  1.0000
  C   C36       1.0  0.9117820860827713  0.8211580039094959  0.6008000886370055  1.0000
  C   C37       1.0  0.909052644111777  0.2942758216469945  0.6125052324729561  1.0000
  O   O1        1.0  0.9729591080541998  0.563934046569476  0.4208098844276287  1.0000
  O   O2        1.0  0.9728107868802358  0.5486256825288469  0.7984836554938477  1.0000
  O   O3        1.0  0.9739713263500285  0.7659816601984781  0.6022008185264052  1.0000
  O   O4        1.0  0.9717985124860408  0.3465780805025209  0.6170926212973753  1.0000
  O   O5        1.0  0.8490344197565753  0.7688556994162219  0.5962124171526635  1.0000
  O   O6        1.0  0.8478738892749437  0.5515014547172565  0.7924951804159799  1.0000
  O   O7        1.0  0.8480222105332207  0.5668097683622051  0.4148198480161396  1.0000
  O   O8        1.0  0.8468616148901571  0.3494537919866829  0.6111026822841279  1.0000
