data_image0
_chemical_formula_structural       NC12NC2H8C6NCOCH9C9NC2H9Zn2C4O8
_chemical_formula_sum              "N4 C37 H26 O9 Zn2"
_cell_length_a       17.80743265337812
_cell_length_b       10.300268703208216
_cell_length_c       9.273598843048156
_cell_angle_alpha    85.115627879382
_cell_angle_beta     91.13569736745053
_cell_angle_gamma    89.41550465668445

_space_group_name_H-M_alt    "P 1"
_space_group_IT_number       1

loop_
  _space_group_symop_operation_xyz
  'x, y, z'

loop_
  _atom_site_type_symbol
  _atom_site_label
  _atom_site_symmetry_multiplicity
  _atom_site_fract_x
  _atom_site_fract_y
  _atom_site_fract_z
  _atom_site_occupancy
  N   N1        1.0  0.7126826280536191  0.41735115211690177  0.4459066129772218  1.0000
  C   C1        1.0  0.6621291203890132  0.447435926624109  0.36957345442325407  1.0000
  C   C2        1.0  0.5992355082312892  0.4848591742150401  0.2746246142417115  1.0000
  C   C3        1.0  0.6114531120992283  0.5398493139884617  0.1339337337269111  1.0000
  C   C4        1.0  0.5504576607542571  0.5757506514545112  0.041647134332287505  1.0000
  C   C5        1.0  0.47709286462226763  0.5569303670518173  0.08931817886083926  1.0000
  C   C6        1.0  0.46389665621256204  0.5018178359234842  0.23052922694098954  1.0000
  C   C7        1.0  0.5257494884287505  0.4659198789705814  0.32279747968108374  1.0000
  C   C8        1.0  0.3859525427171335  0.4818615197216758  0.28137842750657627  1.0000
  C   C9        1.0  0.3666579958621374  0.5080711408345875  0.42254197722663966  1.0000
  C   C10       1.0  0.2932630846914304  0.4892921162128019  0.4702580930336142  1.0000
  C   C11       1.0  0.2382164841765834  0.4440427786224834  0.37774175113730935  1.0000
  C   C12       1.0  0.1626795324703691  0.42470020178898005  0.4270144781696661  1.0000
  N   N2        1.0  0.1019531721752517  0.4091500714188241  0.4666263610688799  1.0000
  C   C13       1.0  0.2568174221805762  0.41766008535008536  0.23718151118753683  1.0000
  C   C14       1.0  0.33016048843037954  0.43645585905974915  0.1891810708908146  1.0000
  H   H1        1.0  0.668052123890497  0.5549366837125176  0.09566979792117403  1.0000
  H   H2        1.0  0.5600343230962769  0.6185961774545388  0.9330019975922204  1.0000
  H   H3        1.0  0.43070718765613814  0.5870678878633104  0.016438364188367638  1.0000
  H   H4        1.0  0.5168719870283037  0.4216900703724753  0.43130432613931924  1.0000
  H   H5        1.0  0.4080671364725444  0.5447451415101978  0.49540285421856556  1.0000
  H   H6        1.0  0.2794271875212696  0.5103841893071603  0.579159289353179  1.0000
  H   H7        1.0  0.21468950672178364  0.3822501320247742  0.1647794951729067  1.0000
  H   H8        1.0  0.3434671063992494  0.41382598847699703  0.08061690464380478  1.0000
  C   C15       1.0  0.9073977745082878  0.0319012363364346  0.45627924470865366  1.0000
  C   C16       1.0  0.9205967690885052  0.04206099487912662  0.3069511604463533  1.0000
  C   C17       1.0  0.9282712791486889  0.9298563961047965  0.23206742978803785  1.0000
  C   C18       1.0  0.9204267182775356  0.8069048062009251  0.30697811535565056  1.0000
  C   C19       1.0  0.9072451599385565  0.7945898041336726  0.4562665302281512  1.0000
  C   C20       1.0  0.9010827312585744  0.9076882741892559  0.5302316644449507  1.0000
  N   N3        1.0  0.9406165084027377  0.9386951005349857  0.07875690131129698  1.0000
  C   C21       1.0  0.9849892716520775  0.037411591601925975  0.003566492618205963  1.0000
  O   O1        1.0  0.02716329028512643  0.10905128655394258  0.07245973016599794  1.0000
  C   C22       1.0  0.9855978853575458  0.04941816089350093  0.8419187561097452  1.0000
  H   H9        1.0  0.9012885165512358  0.355512552536964  0.512656841509407  1.0000
  H   H10       1.0  0.9234224036118337  0.13726231379262677  0.24838616936533198  1.0000
  H   H11       1.0  0.9253004563350218  0.7208540533878902  0.24815799200183575  1.0000
  H   H12       1.0  0.890923189646863  0.8990425666259038  0.645411316432331  1.0000
  H   H13       1.0  0.9011409724070847  0.46256520663059986  0.5124354125177497  1.0000
  H   H14       1.0  0.9201343375419178  0.8641091147319669  0.019675360017063825  1.0000
  H   H15       1.0  0.9282562509646289  0.03387801222690756  0.7979476062586239  1.0000
  H   H16       1.0  0.0043701404782847675  0.14797763171776546  0.8008330915546051  1.0000
  H   H17       1.0  0.024509416828370822  0.9751513890630128  0.8042595363110419  1.0000
  C   C23       1.0  0.9088354885370604  0.416184371770838  0.032514667742930214  1.0000
  C   C24       1.0  0.858614992315612  0.4992449060247579  0.09624282940202966  1.0000
  C   C25       1.0  0.804691942746116  0.5721719697237684  0.01260623414966977  1.0000
  C   C26       1.0  0.7995178634509567  0.564112630919472  0.8626104793851614  1.0000
  C   C27       1.0  0.8503052457033681  0.4829886147798921  0.7975030824584457  1.0000
  C   C28       1.0  0.9058074302072151  0.41030664294438846  0.8800311055116836  1.0000
  C   C29       1.0  0.7416846433398974  0.6412651963003155  0.7739331381810763  1.0000
  C   C30       1.0  0.7593440621115264  0.7036758978838491  0.6383122664993262  1.0000
  C   C31       1.0  0.7040597767338566  0.7757760941269616  0.5568532999188935  1.0000
  N   N4        1.0  0.6335112849359689  0.7855137027012129  0.6084212664580546  1.0000
  C   C32       1.0  0.6146405044726654  0.7263847407604911  0.7390684826423923  1.0000
  C   C33       1.0  0.6681951244990549  0.653414176473692  0.8241413631871088  1.0000
  H   H18       1.0  0.020933586216803635  0.3221932391746738  0.32679863953671373  1.0000
  H   H19       1.0  0.8599453677214649  0.5058207635098215  0.21223572999688733  1.0000
  H   H20       1.0  0.7670861847882763  0.6354624447047927  0.06550550987940218  1.0000
  H   H21       1.0  0.8470911867532477  0.47719599552561864  0.6814205800794984  1.0000
  H   H22       1.0  0.07462618324744752  0.2777843872620114  0.7959257667090847  1.0000
  H   H23       1.0  0.815533946786233  0.6983093589842508  0.5965327814746497  1.0000
  H   H24       1.0  0.7173525000311077  0.8243565924833329  0.45259364911751243  1.0000
  H   H25       1.0  0.5579208922170635  0.7357502258560971  0.7768953811953265  1.0000
  H   H26       1.0  0.6520482671809988  0.6056195097139394  0.9272162493768596  1.0000
  Zn  Zn1       1.0  0.8250176726902112  0.41498097258412914  0.4518942038710272  1.0000
  Zn  Zn2       1.0  0.989618085110346  0.41150957640728203  0.46065054082449675  1.0000
  C   C34       1.0  0.9063791794686972  0.4062442850279955  0.7198323621717804  1.0000
  C   C35       1.0  0.9082583749293658  0.4202478636087572  0.1927126197497897  1.0000
  C   C36       1.0  0.9072906966166239  0.6504653729987284  0.45051834653779466  1.0000
  C   C37       1.0  0.9073468016521244  0.1760252160668303  0.46202670935635926  1.0000
  O   O2        1.0  0.9705296901553737  0.42028856638276824  0.24979950020379116  1.0000
  O   O3        1.0  0.9690357703554489  0.40356789608726973  0.6693909234747513  1.0000
  O   O4        1.0  0.9697709845611051  0.600779520573554  0.45191790559041833  1.0000
  O   O5        1.0  0.9697944201674603  0.22307695312115738  0.4672724069021228  1.0000
  O   O6        1.0  0.8448412814630814  0.6034135970563372  0.445272334797703  1.0000
  O   O7        1.0  0.8441060672167238  0.40620353332732995  0.662745275713754  1.0000
  O   O8        1.0  0.8455999932743399  0.42292417040043495  0.24315211749518562  1.0000
  O   O9        1.0  0.8448647228986681  0.22571254710023436  0.46062513238382063  1.0000
