data_image0
_chemical_formula_structural       NC12NC2H8C12H16C12H16Zn2C4O8
_chemical_formula_sum              "N2 C42 H40 Zn2 O8"
_cell_length_a       17.80743265337812
_cell_length_b       10.298977702784466
_cell_length_c       10.298981074953016
_cell_angle_alpha    85.54596758623202
_cell_angle_beta     91.51542336112495
_cell_angle_gamma    89.4320624770977

_space_group_name_H-M_alt    "P 1"
_space_group_IT_number       1

loop_
  _space_group_symop_operation_xyz
  'x, y, z'

loop_
  _atom_site_type_symbol
  _atom_site_label
  _atom_site_symmetry_multiplicity
  _atom_site_fract_x
  _atom_site_fract_y
  _atom_site_fract_z
  _atom_site_occupancy
  N   N1        1.0  0.7076229084856569  0.4066748663766089  0.6008628642420393  1.0000
  C   C1        1.0  0.6568144683376319  0.4362294365633905  0.5321532587289008  1.0000
  C   C2        1.0  0.5936037525177399  0.47299317695510723  0.4466871583553944  1.0000
  C   C3        1.0  0.6053514116547517  0.5270060209904694  0.3200475171179711  1.0000
  C   C4        1.0  0.5440476711638609  0.5622662734893955  0.23697792330087575  1.0000
  C   C5        1.0  0.47084207848147147  0.5437771038426562  0.2798879704775614  1.0000
  C   C6        1.0  0.4581175654245131  0.48964549364355014  0.4069958029449663  1.0000
  C   C7        1.0  0.5202786248891679  0.45438849365722045  0.49004888364316823  1.0000
  C   C8        1.0  0.3803432884808285  0.47004238456447944  0.45276656020191575  1.0000
  C   C9        1.0  0.3615334651493799  0.49724454997686185  0.5798059469985692  1.0000
  C   C10       1.0  0.2882979175275394  0.4787969618503818  0.6227565454395063  1.0000
  C   C11       1.0  0.23292908387505143  0.43289299937485404  0.5395058254015208  1.0000
  C   C12       1.0  0.1575567024868745  0.4138926784831527  0.5838575572492639  1.0000
  N   N2        1.0  0.0969626454013774  0.3986176983409826  0.6195132985609153  1.0000
  C   C13       1.0  0.2510473237449486  0.4055219618600965  0.41300947411311406  1.0000
  C   C14       1.0  0.32423006141898464  0.4239843101655747  0.3698029773840985  1.0000
  H   H1        1.0  0.661822633131748  0.5418276132953415  0.2856050789445894  1.0000
  H   H2        1.0  0.5532614917796369  0.6043571624172841  0.13918339664679213  1.0000
  H   H3        1.0  0.424213231590354  0.5734086148550157  0.21428636938678514  1.0000
  H   H4        1.0  0.5117632700018823  0.41091215004605797  0.587719385998688  1.0000
  H   H5        1.0  0.40319654755164286  0.5344342504935085  0.645369392340351  1.0000
  H   H6        1.0  0.2748361038187516  0.5006548655772551  0.7207613229328211  1.0000
  H   H7        1.0  0.20866723331931714  0.36959970833687095  0.3478586057654258  1.0000
  H   H8        1.0  0.3371634936426246  0.40059074337650746  0.2721020140164634  1.0000
  C   C15       1.0  0.9023108427711948  0.02124093001543792  0.6103200659518491  1.0000
  C   C16       1.0  0.9040656516299842  0.009413485146752887  0.7471742459500428  1.0000
  C   C17       1.0  0.9051272807568879  0.8861944511782864  0.816430983500871  1.0000
  C   C18       1.0  0.9040243315334124  0.7741516867654932  0.7468711091392422  1.0000
  C   C19       1.0  0.9022818956749479  0.7840414698192086  0.6100676020823053  1.0000
  C   C20       1.0  0.9014918087318313  0.908036753847949  0.5426001888359437  1.0000
  C   C21       1.0  0.9068561369450941  0.873211145742686  0.9644161781588865  1.0000
  C   C22       1.0  0.8334006062799669  0.9264846416033208  0.01943615057792969  1.0000
  C   C23       1.0  0.8438127905177443  0.9720010317465059  0.15791686372189062  1.0000
  C   C24       1.0  0.9063523904556055  0.8951370081011999  0.23586369291384357  1.0000
  C   C25       1.0  0.9830125920922416  0.9119375478398603  0.17061379736895665  1.0000
  C   C26       1.0  0.9767171563124339  0.9381187950297252  0.02115273661153172  1.0000
  H   H9        1.0  0.8986730713549055  0.25088973117377344  0.35197659355074595  1.0000
  H   H10       1.0  0.9043193643299057  0.09615677337321471  0.8002037989075992  1.0000
  H   H11       1.0  0.9045467903823133  0.6789975456775065  0.7996884314924493  1.0000
  H   H12       1.0  0.9001451665484105  0.9163665336106397  0.43708215654698757  1.0000
  H   H13       1.0  0.9013729570844494  0.4603706029735858  0.5573963944067069  1.0000
  H   H14       1.0  0.9112447401750065  0.767909598206097  0.9982070542384975  1.0000
  H   H15       1.0  0.7906686652582725  0.8483899742953507  0.020882217896767807  1.0000
  H   H16       1.0  0.8099973068110455  0.009831802483604601  0.9554311035624252  1.0000
  H   H17       1.0  0.8580663843830276  0.07719074397910775  0.15147948480311446  1.0000
  H   H18       1.0  0.7901651570384144  0.9608407676089503  0.210178428728778  1.0000
  H   H19       1.0  0.891455216231768  0.7902358339825364  0.2444240076166848  1.0000
  H   H20       1.0  0.9103879688027988  0.927942475750786  0.33607926608808714  1.0000
  H   H21       1.0  0.017428439381696137  0.8223533101421747  0.19549769717946452  1.0000
  H   H22       1.0  0.013314894981572012  0.9940944862595772  0.21145568534352321  1.0000
  H   H23       1.0  0.9735657716377406  0.04512444073957611  0.9966507451554645  1.0000
  H   H24       1.0  0.028361690595314792  0.90097494480134  0.9773915861231959  1.0000
  C   C27       1.0  0.9023685347031871  0.4026125716589286  0.2288090940529337  1.0000
  C   C28       1.0  0.9753967380980076  0.3492421269374333  0.23512376802741097  1.0000
  C   C29       1.0  0.012418590310575794  0.32251123580834196  0.12107018733184449  1.0000
  C   C30       1.0  0.9752209492568241  0.34930042566449027  0.9998252913692536  1.0000
  C   C31       1.0  0.9022241847661251  0.40266983571008863  0.9915785629125193  1.0000
  C   C32       1.0  0.8662502867404541  0.42910090614796315  0.10662325089835978  1.0000
  C   C33       1.0  0.09132334278391774  0.2645299080302197  0.12771966661094125  1.0000
  C   C34       1.0  0.09291298280911287  0.12439107041695596  0.19496285244088174  1.0000
  C   C35       1.0  0.17004314046030622  0.08420756888274084  0.25805956706343736  1.0000
  C   C36       1.0  0.23468130988301406  0.15229445905662353  0.1859886931514707  1.0000
  C   C37       1.0  0.22888182521757372  0.30176134942920263  0.18716324445455923  1.0000
  C   C38       1.0  0.1474866546882967  0.3530403127982795  0.19392526111305752  1.0000
  H   H25       1.0  0.7643893755075812  0.5028409876087121  0.4242396953419343  1.0000
  H   H26       1.0  0.0035347540263179766  0.3278794503561726  0.3289353382970899  1.0000
  H   H27       1.0  0.003347375338973446  0.32845508441146665  0.9116867376503786  1.0000
  H   H28       1.0  0.8099461093844958  0.4702609590477427  0.10096438156702314  1.0000
  H   H29       1.0  0.874030320982475  0.42283681535472883  0.6609464475074236  1.0000
  H   H30       1.0  0.11083588039079029  0.2576819388946687  0.02654165425356858  1.0000
  H   H31       1.0  0.07767645123768352  0.055412163941155335  0.12090819048660251  1.0000
  H   H32       1.0  0.050302362552216984  0.11321210511521573  0.27185796926702044  1.0000
  H   H33       1.0  0.17197629082970023  0.10966055411372255  0.3611052578364222  1.0000
  H   H34       1.0  0.17759133245435588  0.9769001786677012  0.25871697461489096  1.0000
  H   H35       1.0  0.23362979712496412  0.12493996555967679  0.0835733262068532  1.0000
  H   H36       1.0  0.28918832983447773  0.11761411282478074  0.23183169748592047  1.0000
  H   H37       1.0  0.2549281714605982  0.3466231697508937  0.09780829581064499  1.0000
  H   H38       1.0  0.2618267500455491  0.3334893762118214  0.2720536936168174  1.0000
  H   H39       1.0  0.13334942888576484  0.35805512352439006  0.29793819319716763  1.0000
  H   H40       1.0  0.1436835651880426  0.4536526840814208  0.14628067920592125  1.0000
  Zn  Zn1       1.0  0.8199779484118802  0.40434627467766004  0.6062524651058194  1.0000
  Zn  Zn2       1.0  0.9846076013787814  0.400935696366318  0.614134294694191  1.0000
  C   C39       1.0  0.9022500081651349  0.39748490627893296  0.8474004680181277  1.0000
  C   C40       1.0  0.902337339289919  0.40779866630706807  0.3729865047806493  1.0000
  C   C41       1.0  0.9022844831812517  0.6398556598577905  0.604939778169266  1.0000
  C   C42       1.0  0.9023028081433146  0.1654263534458218  0.6154472616978932  1.0000
  O   O1        1.0  0.9648029653655384  0.40823920407001824  0.42436487602518946  1.0000
  O   O2        1.0  0.9647344795284413  0.3944548386490614  0.8020038495207213  1.0000
  O   O3        1.0  0.9647614760767818  0.5901723049097112  0.6062150862490265  1.0000
  O   O4        1.0  0.9647759126583222  0.21252174825696057  0.6201535392255617  1.0000
  O   O5        1.0  0.8398095809523198  0.5927602239522942  0.6002332178779346  1.0000
  O   O6        1.0  0.8397825843544472  0.39704431813930974  0.7960219113847329  1.0000
  O   O7        1.0  0.8398510705386781  0.41082863818164395  0.41838137644102646  1.0000
  O   O8        1.0  0.839824017810318  0.21511117308627115  0.6141701370162074  1.0000
