data_image0
_chemical_formula_structural       NC12NC2H8C7N4H6C12H10Zn2C4O8
_chemical_formula_sum              "N6 C37 H24 Zn2 O8"
_cell_length_a       17.80743265337812
_cell_length_b       9.274187458527196
_cell_length_c       10.299141136925906
_cell_angle_alpha    85.89992364093918
_cell_angle_beta     91.556080336852
_cell_angle_gamma    89.89930755814211

_space_group_name_H-M_alt    "P 1"
_space_group_IT_number       1

loop_
  _space_group_symop_operation_xyz
  'x, y, z'

loop_
  _atom_site_type_symbol
  _atom_site_label
  _atom_site_symmetry_multiplicity
  _atom_site_fract_x
  _atom_site_fract_y
  _atom_site_fract_z
  _atom_site_occupancy
  N   N1        1.0  0.7138324818468799  0.5618179404001533  0.6103669611644587  1.0000
  C   C1        1.0  0.6631383350824546  0.5946482649663027  0.5418558626951799  1.0000
  C   C2        1.0  0.6000697934433772  0.6354868045627544  0.45663669078717883  1.0000
  C   C3        1.0  0.6120258914425803  0.6954867359243533  0.3303598017426954  1.0000
  C   C4        1.0  0.5508580588404648  0.7346555965483987  0.2475270051444538  1.0000
  C   C5        1.0  0.4775809343149146  0.7141171642847308  0.2903128652299909  1.0000
  C   C6        1.0  0.4646476021134531  0.653985224051602  0.4170571535434251  1.0000
  C   C7        1.0  0.5266727625853035  0.6148199801204957  0.4998734586008562  1.0000
  C   C8        1.0  0.386797596967395  0.6322092747038504  0.46269624990064817  1.0000
  C   C9        1.0  0.3681712397805311  0.6623482351519563  0.589924036757719  1.0000
  C   C10       1.0  0.2948643775643783  0.6418559367876717  0.6327507315008134  1.0000
  C   C11       1.0  0.23923988172811284  0.5909421915854238  0.5491860076703159  1.0000
  C   C12       1.0  0.16379409598289313  0.5698358492066944  0.5934101267943503  1.0000
  N   N2        1.0  0.10314102670302581  0.5528677694561734  0.6289632760566128  1.0000
  C   C13       1.0  0.2571740642716522  0.5606155798306323  0.42250012657152713  1.0000
  C   C14       1.0  0.330428082474264  0.5811243654486622  0.3794176260491342  1.0000
  H   H1        1.0  0.6685544372791593  0.7119511099996687  0.29601691514621287  1.0000
  H   H2        1.0  0.560234677949409  0.7814117092947759  0.15001518911466993  1.0000
  H   H3        1.0  0.43106803038107044  0.7470316063582618  0.22491038631050775  1.0000
  H   H4        1.0  0.5179878754482999  0.566526227503827  0.5972518446657871  1.0000
  H   H5        1.0  0.41004067562535845  0.7035974514055026  0.6557418200659617  1.0000
  H   H6        1.0  0.28154830883044735  0.6660753349843327  0.730906773166548  1.0000
  H   H7        1.0  0.2145939036434997  0.5207729102421215  0.357103533734936  1.0000
  H   H8        1.0  0.343208487423906  0.5552004379587963  0.28155498630161824  1.0000
  C   C15       1.0  0.9066651657844145  0.13402796387746463  0.6172088188242015  1.0000
  C   C16       1.0  0.9455348297259796  0.2148398811179768  0.5202207926523454  1.0000
  C   C17       1.0  0.9893442016410604  0.14679508431431598  0.43235575785789204  1.0000
  C   C18       1.0  0.9956481197872442  0.995772211974549  0.43904272697336455  1.0000
  C   C19       1.0  0.9557782956537691  0.9137858024153226  0.534113043452604  1.0000
  C   C20       1.0  0.9103154590428385  0.9806464673092016  0.6221328516875939  1.0000
  C   C21       1.0  0.0431788695745694  0.9256837353900311  0.34540690974931754  1.0000
  N   N3        1.0  0.07927041431058757  0.9976194184174416  0.24745404728200016  1.0000
  N   N4        1.0  0.1150791169789076  0.896740532518683  0.18809898362552824  1.0000
  N   N5        1.0  0.10191999629177384  0.767834985864  0.24660413362902767  1.0000
  N   N6        1.0  0.057232595695330124  0.7830724201791934  0.34499403532991524  1.0000
  H   H9        1.0  0.8083048863182795  0.40573540110018436  0.7428298032879377  1.0000
  H   H10       1.0  0.9435603554287688  0.3318966548380988  0.5141607951245977  1.0000
  H   H11       1.0  0.019095030288398318  0.21302968112455956  0.35984163639662703  1.0000
  H   H12       1.0  0.9581515483619517  0.7970565996106418  0.5381368743724451  1.0000
  H   H13       1.0  0.8624010977117907  0.6851367520913075  0.8192529598193323  1.0000
  H   H14       1.0  0.038462749617963254  0.698254612208666  0.40770006872770725  1.0000
  C   C22       1.0  0.9084054726199563  0.5574622261063609  0.23827449150521662  1.0000
  C   C23       1.0  0.9869376967887248  0.5711832192115462  0.2402976221323474  1.0000
  C   C24       1.0  0.026844031874047714  0.5780118877645173  0.12419317676018671  1.0000
  C   C25       1.0  0.9871566279343137  0.5709343966757785  0.005041007744437831  1.0000
  C   C26       1.0  0.9085752033351466  0.5572122438063909  0.001067247013634809  1.0000
  C   C27       1.0  0.8696834752173191  0.5505582755253629  0.11815350166840566  1.0000
  C   C28       1.0  0.10992323129633963  0.5925291338327787  0.12737821958801554  1.0000
  C   C29       1.0  0.1542896091279129  0.5126744424147589  0.0468318691430758  1.0000
  C   C30       1.0  0.23248275908005667  0.5265182616149446  0.05006848232064631  1.0000
  C   C31       1.0  0.26721120684508093  0.6200093052202389  0.1334143984604519  1.0000
  C   C32       1.0  0.2238167720806188  0.6998512147878109  0.21376254896208735  1.0000
  C   C33       1.0  0.14560549566694436  0.686369264532871  0.21099691395626707  1.0000
  H   H15       1.0  0.8781932191006063  0.5522577083817442  0.5649671289035856  1.0000
  H   H16       1.0  0.017352345516508327  0.5745994692498262  0.33252592723671603  1.0000
  H   H17       1.0  0.01752938042875285  0.5781305194238766  0.9151102876235826  1.0000
  H   H18       1.0  0.8091095942883916  0.5399789696750614  0.1158771142856343  1.0000
  H   H19       1.0  0.7602120005296583  0.5322279841507846  0.7862146712782603  1.0000
  H   H20       1.0  0.12860794402270215  0.4382249783799703  0.982672806998548  1.0000
  H   H21       1.0  0.26618765409282386  0.46439929475176545  0.9881057450703925  1.0000
  H   H22       1.0  0.32774485640041306  0.6305851095861292  0.13573763210891054  1.0000
  H   H23       1.0  0.2507812489673653  0.772569548037819  0.27805355309997926  1.0000
  H   H24       1.0  0.11299321944239327  0.7506335214678859  0.2729198929586758  1.0000
  Zn  Zn1       1.0  0.8261785067754714  0.5592312633079739  0.6157409210267459  1.0000
  Zn  Zn2       1.0  0.9907949509384594  0.5554426844669724  0.6235998416177901  1.0000
  C   C34       1.0  0.9085166647790204  0.5515168191166884  0.856849576636334  1.0000
  C   C35       1.0  0.9084585984119553  0.5631589060929436  0.38249140988170605  1.0000
  C   C36       1.0  0.9096204810355281  0.8206193695920276  0.6160264056916223  1.0000
  C   C37       1.0  0.90735471853135  0.2940546249709788  0.6233146373152241  1.0000
  O   O1        1.0  0.970947483451562  0.5636267291070112  0.4338743079565932  1.0000
  O   O2        1.0  0.9709678471218716  0.5481724650666187  0.8114310372491063  1.0000
  O   O3        1.0  0.971858350869046  0.7654761967806334  0.6169645913600572  1.0000
  O   O4        1.0  0.9700569235547424  0.34632300902972757  0.6283406538422249  1.0000
  O   O5        1.0  0.8469164779836802  0.7683509400396469  0.6110001061136245  1.0000
  O   O6        1.0  0.8460259816850956  0.5510489402666852  0.8054664928251807  1.0000
  O   O7        1.0  0.8460056175007482  0.5665031545840895  0.42790820172982524  1.0000
  O   O8        1.0  0.8451150575780657  0.349199424164502  0.6223746449301881  1.0000
