data_image0
_chemical_formula_structural       NC12NC2H8C12H16C12H10Zn2C4O8
_chemical_formula_sum              "N2 C42 H34 Zn2 O8"
_cell_length_a       17.80743265337812
_cell_length_b       10.298977702784466
_cell_length_c       10.299141136925906
_cell_angle_alpha    85.52530253052839
_cell_angle_beta     91.556080336852
_cell_angle_gamma    89.4320624770977

_space_group_name_H-M_alt    "P 1"
_space_group_IT_number       1

loop_
  _space_group_symop_operation_xyz
  'x, y, z'

loop_
  _atom_site_type_symbol
  _atom_site_label
  _atom_site_symmetry_multiplicity
  _atom_site_fract_x
  _atom_site_fract_y
  _atom_site_fract_z
  _atom_site_occupancy
  N   N1        1.0  0.7070448862780047  0.40719311037985984  0.6008174846797241  1.0000
  C   C1        1.0  0.656208060293559  0.4367731307817151  0.5321056506417716  1.0000
  C   C2        1.0  0.5929620360662532  0.47356852803741467  0.4466367782639149  1.0000
  C   C3        1.0  0.6046573768685332  0.5276282797224761  0.31999302960103293  1.0000
  C   C4        1.0  0.5433193180332999  0.5629193014131757  0.23692074150779208  1.0000
  C   C5        1.0  0.4701314526769644  0.5444142377743035  0.2798321804273669  1.0000
  C   C6        1.0  0.45745945137747074  0.4902355465062591  0.40694413550552744  1.0000
  C   C7        1.0  0.519654822364442  0.4549477834446578  0.4899999099442891  1.0000
  C   C8        1.0  0.3797040835982128  0.47061548382066487  0.4527163772895315  1.0000
  C   C9        1.0  0.3609467437474312  0.4977705935165617  0.579759884476976  1.0000
  C   C10       1.0  0.2877289402044921  0.4793070963776562  0.6227118759760402  1.0000
  C   C11       1.0  0.2323257133794157  0.43343397018352214  0.5394584557872681  1.0000
  C   C12       1.0  0.1569716549170626  0.41441722129596803  0.5838116261374482  1.0000
  N   N2        1.0  0.09639232820343671  0.3991290341752647  0.6194685239060997  1.0000
  C   C13       1.0  0.250391694111618  0.40610978724349667  0.4129580017208643  1.0000
  C   C14       1.0  0.3235565819880995  0.42458813934678696  0.3697501036339259  1.0000
  H   H1        1.0  0.6611143692227073  0.5424626295952693  0.2855494743228808  1.0000
  H   H2        1.0  0.5524927370281426  0.6050464136859346  0.13912304298963418  1.0000
  H   H3        1.0  0.4234755039519245  0.574070047788884  0.21422845161667814  1.0000
  H   H4        1.0  0.5111798178602255  0.411435262427545  0.5876735801412836  1.0000
  H   H5        1.0  0.4026369122204224  0.5349360091639757  0.6453254563011288  1.0000
  H   H6        1.0  0.2743076149770687  0.5011286988822063  0.720719832152698  1.0000
  H   H7        1.0  0.20798468806221362  0.37021166576992126  0.3478050202723122  1.0000
  H   H8        1.0  0.3364496512443847  0.40123076124650736  0.2720459714368435  1.0000
  C   C15       1.0  0.9017367275948625  0.02175567104678655  0.6102749931240661  1.0000
  C   C16       1.0  0.9035480746965644  0.009877535036903806  0.7471336118456917  1.0000
  C   C17       1.0  0.9046383156952503  0.8866328481942458  0.8163925956669937  1.0000
  C   C18       1.0  0.9035066293658005  0.7746158489383003  0.7468304652029627  1.0000
  C   C19       1.0  0.9017076761988156  0.7845563043638257  0.6100225210661177  1.0000
  C   C20       1.0  0.9008897166032247  0.908576578496421  0.5425529195841612  1.0000
  C   C21       1.0  0.9064283086560643  0.8735947286609123  0.9643825900713616  1.0000
  C   C22       1.0  0.8329955082616943  0.9268478449818746  0.01940434700616256  1.0000
  C   C23       1.0  0.8434649027081662  0.9723129415117899  0.15788955162847218  1.0000
  C   C24       1.0  0.9060367046347657  0.895420046159938  0.23583890894501136  1.0000
  C   C25       1.0  0.9826699497367577  0.912244754628178  0.17058689708741603  1.0000
  C   C26       1.0  0.9763127674632797  0.9384813625803853  0.021120988715452982  1.0000
  H   H9        1.0  0.8979922273523323  0.25150016329352853  0.35192314162029636  1.0000
  H   H10       1.0  0.9038236953699701  0.09660118098019455  0.8001648847618148  1.0000
  H   H11       1.0  0.9040509085098597  0.6794421441779062  0.7996495006312574  1.0000
  H   H12       1.0  0.8994994820052994  0.9169454424103867  0.43703146492723266  1.0000
  H   H13       1.0  0.9007769776771696  0.4609049470693569  0.5573496050545104  1.0000
  H   H14       1.0  0.9108308718304957  0.7682806648966817  0.998174562123002  1.0000
  H   H15       1.0  0.790264164650363  0.8487526420468404  0.020850461226694872  1.0000
  H   H16       1.0  0.8095657665394504  0.010218713496632503  0.9553972240533215  1.0000
  H   H17       1.0  0.8577158371143593  0.07750503816614418  0.15145196391998528  1.0000
  H   H18       1.0  0.7898388599252797  0.9611333195557811  0.2101528116850333  1.0000
  H   H19       1.0  0.8911430669134455  0.7905157012786329  0.2443995012927841  1.0000
  H   H20       1.0  0.9101136848041013  0.9281883937027795  0.33605773250746307  1.0000
  H   H21       1.0  0.01709607725274309  0.8226512998698309  0.19547160398141394  1.0000
  H   H22       1.0  0.012989125538434232  0.9943865651072638  0.21143010972627263  1.0000
  H   H23       1.0  0.9731512603389483  0.04549608389105875  0.9966182025626977  1.0000
  H   H24       1.0  0.027939222805813735  0.9013537215949946  0.9773584188795745  1.0000
  C   C27       1.0  0.9016368068035667  0.40326862533812835  0.22875164731234343  1.0000
  C   C28       1.0  0.9801094001091009  0.4156311974828941  0.2306908832052572  1.0000
  C   C29       1.0  0.019986058085964098  0.42178380662653536  0.11454468507300697  1.0000
  C   C30       1.0  0.9803294126270428  0.41540700915147477  0.9954357902014297  1.0000
  C   C31       1.0  0.9018076239313971  0.4030433920627672  0.9915459312960295  1.0000
  C   C32       1.0  0.8629448136819404  0.39704818732120195  0.10867287053508257  1.0000
  C   C33       1.0  0.1030021661628846  0.4348638002163854  0.11764096461007978  1.0000
  C   C34       1.0  0.14771558914972327  0.3629149714264197  0.03758287241737701  1.0000
  C   C35       1.0  0.2258485744415515  0.37538820950105367  0.04073483986096593  1.0000
  C   C36       1.0  0.26017071403397085  0.4596233492317998  0.12350912053715635  1.0000
  C   C37       1.0  0.21642928966363129  0.5315606616142363  0.20336909093905775  1.0000
  C   C38       1.0  0.13827660524294405  0.5194134663346286  0.20068588907963525  1.0000
  H   H25       1.0  0.8714471719009786  0.3985793710431922  0.5554761068702225  1.0000
  H   H26       1.0  0.010509201956833802  0.41870922815013767  0.32289830021597377  1.0000
  H   H27       1.0  0.010670891072430022  0.4218906933829272  0.905461070582819  1.0000
  H   H28       1.0  0.8024169099745915  0.38751626562914376  0.10646116856142918  1.0000
  H   H29       1.0  0.753553001675372  0.38053265176079387  0.7768461176681312  1.0000
  H   H30       1.0  0.12235747830721899  0.2958362357100244  0.9738790191596922  1.0000
  H   H31       1.0  0.2598234358910698  0.3194192134147471  0.9791519187198578  1.0000
  H   H32       1.0  0.32065840158502934  0.4691521160972858  0.12576769018574252  1.0000
  H   H33       1.0  0.24307773570979463  0.5970796538736671  0.2672154709018666  1.0000
  H   H34       1.0  0.10538503924054732  0.5773153621083864  0.2622159349529418  1.0000
  Zn  Zn1       1.0  0.8194021527972546  0.4048625223588518  0.6062072603496198  1.0000
  Zn  Zn2       1.0  0.9840350619657262  0.4014490245975042  0.6140893455769623  1.0000
  C   C39       1.0  0.9017738374532093  0.39791183211796133  0.8473630846473703  1.0000
  C   C40       1.0  0.9016651750621595  0.40840131630152254  0.37293373428488663  1.0000
  C   C41       1.0  0.9017081452593841  0.6403723937616084  0.6048945308374272  1.0000
  C   C42       1.0  0.901730811153205  0.16593919535064394  0.6154023551653878  1.0000
  O   O1        1.0  0.964152026962477  0.4088228233832665  0.4243137719336272  1.0000
  O   O2        1.0  0.9642395542191479  0.39489857951265206  0.8019649937577122  1.0000
  O   O3        1.0  0.9641856650199176  0.5906885664361277  0.6061698802804827  1.0000
  O   O4        1.0  0.9642058599614892  0.21303284694444935  0.6201087853362888  1.0000
  O   O5        1.0  0.8392312986203581  0.5932787011781819  0.6001878178936926  1.0000
  O   O6        1.0  0.8392851877412345  0.39749027472821297  0.7959828616037632  1.0000
  O   O7        1.0  0.8391976601866198  0.41141447379856877  0.41833007828085833  1.0000
  O   O8        1.0  0.8392514932047165  0.2156244880413687  0.6141251890614874  1.0000
