data_image0
_chemical_formula_structural       NC12NC2H8C7F3H5C6SCNH5Zn2C4O8
_chemical_formula_sum              "N3 C32 H18 F3 S1 Zn2 O8"
_cell_length_a       17.80743265337812
_cell_length_b       10.29932413504667
_cell_length_c       9.275272990362726
_cell_angle_alpha    85.05070398560018
_cell_angle_beta     91.20895717805207
_cell_angle_gamma    89.4159334836852

_space_group_name_H-M_alt    "P 1"
_space_group_IT_number       1

loop_
  _space_group_symop_operation_xyz
  'x, y, z'

loop_
  _atom_site_type_symbol
  _atom_site_label
  _atom_site_symmetry_multiplicity
  _atom_site_fract_x
  _atom_site_fract_y
  _atom_site_fract_z
  _atom_site_occupancy
  N   N1        1.0  0.7116435059525869  0.41924763574625423  0.4461658483365638  1.0000
  C   C1        1.0  0.6610387276269643  0.4494223497859884  0.369840143210014  1.0000
  C   C2        1.0  0.5980813412302775  0.48695747096146036  0.27490057436429827  1.0000
  C   C3        1.0  0.6102044446201976  0.5421133424130602  0.13422337000250217  1.0000
  C   C4        1.0  0.5491470044133913  0.5781233782875046  0.04194571886953824  1.0000
  C   C5        1.0  0.4758142272849524  0.5592469228883683  0.08961210436881761  1.0000
  C   C6        1.0  0.46271286921802285  0.5039680539052496  0.23080943653902164  1.0000
  C   C7        1.0  0.5246276779505995  0.46796141984815054  0.3230687422946634  1.0000
  C   C8        1.0  0.3848029100797448  0.4839518315124953  0.28165368331592333  1.0000
  C   C9        1.0  0.36560365797827343  0.5100017745883392  0.4228143799804327  1.0000
  C   C10       1.0  0.2922407964299113  0.49116653065905247  0.47052584023991195  1.0000
  C   C11       1.0  0.23713157679267982  0.44601956337138704  0.3780076191298303  1.0000
  C   C12       1.0  0.16162772052983854  0.4266189372103386  0.42727554529236333  1.0000
  N   N2        1.0  0.10092796669427591  0.41102213917186736  0.4668835686186019  1.0000
  C   C13       1.0  0.2556376256470562  0.41979584254222657  0.2374501819681496  1.0000
  C   C14       1.0  0.3289484507440302  0.43864816282313046  0.18945441225248238  1.0000
  H   H1        1.0  0.6667777557282742  0.5572457971507421  0.09596317129972087  1.0000
  H   H2        1.0  0.5586506932725646  0.6210969174995966  0.933311194054073  1.0000
  H   H3        1.0  0.429379607446536  0.5894704291655799  0.0167395947422857  1.0000
  H   H4        1.0  0.5158230487185328  0.42360364411340146  0.43156479817899784  1.0000
  H   H5        1.0  0.4070621201108643  0.5465952382559505  0.495676875575084  1.0000
  H   H6        1.0  0.2784784198979536  0.5121354903532931  0.5794249520892478  1.0000
  H   H7        1.0  0.21346070533392494  0.38446600293336575  0.16504669551442808  1.0000
  H   H8        1.0  0.3421817662165931  0.4161408944168492  0.08089210993131024  1.0000
  C   C15       1.0  0.906363385190711  0.03375452238795784  0.45648653570846065  1.0000
  C   C16       1.0  0.9814640896391094  0.03462934826684805  0.4128595270467237  1.0000
  C   C17       1.0  0.018900885846717452  0.918150531034177  0.3883084997109001  1.0000
  C   C18       1.0  0.9812696444970002  0.7993754724703364  0.4129757196528965  1.0000
  C   C19       1.0  0.9062152566992374  0.7965049876512486  0.4565756968638257  1.0000
  C   C20       1.0  0.8691076927338904  0.9142856436217196  0.4775244402004648  1.0000
  C   C21       1.0  0.10035334325983358  0.9197362010529935  0.3465397594686461  1.0000
  F   F1        1.0  0.1168175121604671  0.03454754283189754  0.26517101240478125  1.0000
  F   F2        1.0  0.14520430037313004  0.9091782119654837  0.47055543967746893  1.0000
  F   F3        1.0  0.11661094220823287  0.8169077109442454  0.2651510411913969  1.0000
  H   H9        1.0  0.7650507164664635  0.23914023456285993  0.54131476678755  1.0000
  H   H10       1.0  0.010999311190936778  0.12607953242980785  0.3981685769254235  1.0000
  H   H11       1.0  0.01067130668753058  0.7090371573161331  0.39836840653615346  1.0000
  H   H12       1.0  0.8112234548745438  0.9128069519122138  0.5111466678177345  1.0000
  H   H13       1.0  0.8777541729006774  0.46774986287140197  0.4757891947246271  1.0000
  C   C22       1.0  0.9075177422948403  0.4185546058416807  0.03279235295065486  1.0000
  C   C23       1.0  0.8502689401853795  0.48681880521289744  0.0975077545995815  1.0000
  C   C24       1.0  0.7904261306178686  0.5438671522306406  0.014683727584414497  1.0000
  C   C25       1.0  0.7867429990111352  0.5339956486860016  0.8656562403332919  1.0000
  C   C26       1.0  0.84357665955125  0.4680461933324136  0.7989899607727375  1.0000
  C   C27       1.0  0.9050608982876249  0.41170493332500424  0.8802698577643038  1.0000
  S   S1        1.0  0.709261986037904  0.6059907664231723  0.7598763421706543  1.0000
  C   C28       1.0  0.7557012044654831  0.755768045427853  0.7261229763525523  1.0000
  N   N3        1.0  0.7861659482145651  0.8539505418022104  0.7040112651967623  1.0000
  H   H14       1.0  0.026615897575153147  0.35692831450769225  0.32466024183562525  1.0000
  H   H15       1.0  0.8508161542408956  0.493457717673768  0.21345028780302333  1.0000
  H   H16       1.0  0.7465640445818463  0.5949377362890498  0.06684196837499723  1.0000
  H   H17       1.0  0.8406262297712817  0.46372662966447153  0.682692307962121  1.0000
  H   H18       1.0  0.08366426422821616  0.327781576862614  0.7925451417737679  1.0000
  Zn  Zn1       1.0  0.823982572211401  0.41687040049695256  0.45215285320315024  1.0000
  Zn  Zn2       1.0  0.988588865877777  0.41338868551786057  0.460908332446069  1.0000
  C   C29       1.0  0.9055246123788314  0.40782588262934194  0.7200777855187346  1.0000
  C   C30       1.0  0.9070486224771089  0.4224348028888265  0.19298363755948933  1.0000
  C   C31       1.0  0.9062560484184542  0.6523755051372666  0.4508085071498995  1.0000
  C   C32       1.0  0.906317130348891  0.17788362059824236  0.4622529896892953  1.0000
  O   O1        1.0  0.9693584132747348  0.42241007386467655  0.2500679541204871  1.0000
  O   O2        1.0  0.968147191138098  0.40520709415142164  0.66963825962049  1.0000
  O   O3        1.0  0.9687369885525027  0.6026840127634161  0.45220136757901197  1.0000
  O   O4        1.0  0.9687685600032017  0.22493316660571328  0.46750473498246703  1.0000
  O   O5        1.0  0.8438028219139487  0.6053259205987143  0.44555644767134694  1.0000
  O   O6        1.0  0.843213024416111  0.407850562958993  0.6629932629564488  1.0000
  O   O7        1.0  0.8444242516409273  0.4250535114358176  0.24342122258248655  1.0000
  O   O8        1.0  0.8438343980544947  0.22757659401343688  0.4608581116285593  1.0000
