data_image0
_chemical_formula_structural       NC12NC2H8C9NC2H9C7NC2OH7Zn2C4O8
_chemical_formula_sum              "N4 C38 H24 O9 Zn2"
_cell_length_a       17.80743265337812
_cell_length_b       9.273595471060368
_cell_length_c       10.300337369960102
_cell_angle_alpha    85.65054000115913
_cell_angle_beta     91.53453705670806
_cell_angle_gamma    88.84631592348521

_space_group_name_H-M_alt    "P 1"
_space_group_IT_number       1

loop_
  _space_group_symop_operation_xyz
  'x, y, z'

loop_
  _atom_site_type_symbol
  _atom_site_label
  _atom_site_symmetry_multiplicity
  _atom_site_fract_x
  _atom_site_fract_y
  _atom_site_fract_z
  _atom_site_occupancy
  N   N1        1.0  0.6990700925821706  0.5623746446101232  0.6033006172603712  1.0000
  C   C1        1.0  0.6480743295215805  0.5952038381665539  0.534646827657143  1.0000
  C   C2        1.0  0.584630598303835  0.6360409720639599  0.4492501577963839  1.0000
  C   C3        1.0  0.5960357057115686  0.6960384877961072  0.3227126486330225  1.0000
  C   C4        1.0  0.5345082660735979  0.7352056417123807  0.2397097744088028  1.0000
  C   C5        1.0  0.46141984712040623  0.7146678927625976  0.28258491216111414  1.0000
  C   C6        1.0  0.449038675817554  0.6545384353770405  0.40959036579029373  1.0000
  C   C7        1.0  0.5114234120777255  0.6153748951084526  0.4925767340852061  1.0000
  C   C8        1.0  0.3713886855454616  0.6327633003897655  0.4553240781747041  1.0000
  C   C9        1.0  0.352443360919796  0.662963305961435  0.5823925828071945  1.0000
  C   C10       1.0  0.27932475009398927  0.6424717340935433  0.6253083343038104  1.0000
  C   C11       1.0  0.2242100136887297  0.5914977606094911  0.5419931404959581  1.0000
  C   C12       1.0  0.148958094955347  0.5703922037676488  0.5863089679427853  1.0000
  N   N2        1.0  0.08846088172942491  0.5534247555136871  0.6219358445388106  1.0000
  C   C13       1.0  0.24246485438103524  0.5611101592788141  0.4154673348496465  1.0000
  C   C14       1.0  0.3155305187220313  0.5816181455356211  0.3722957388572554  1.0000
  H   H1        1.0  0.6524129878859999  0.7125022996865946  0.2882982002940264  1.0000
  H   H2        1.0  0.5434553176622264  0.7819601632788087  0.1419947323778139  1.0000
  H   H3        1.0  0.4146038272574728  0.7475822733516491  0.21703888785095082  1.0000
  H   H4        1.0  0.5031829586341583  0.567081695262939  0.5901655265211958  1.0000
  H   H5        1.0  0.3939002177682431  0.7042607024783369  0.6480084826879728  1.0000
  H   H6        1.0  0.2657532656337708  0.6667388543016983  0.7233369857288803  1.0000
  H   H7        1.0  0.20028360780487633  0.5212203569862737  0.3502660127321713  1.0000
  H   H8        1.0  0.32858272141785033  0.5556454890291607  0.27456838338576106  1.0000
  C   C15       1.0  0.8960289955254714  0.13431012631473305  0.6121335990794032  1.0000
  C   C16       1.0  0.8876873021829611  0.21815952620726842  0.4930389641683406  1.0000
  C   C17       1.0  0.8727316866566723  0.15379508125762253  0.37735265291939823  1.0000
  C   C18       1.0  0.8657407612507387  0.00348848340155139  0.37754100371984745  1.0000
  C   C19       1.0  0.8752371817595163  0.9184450816512583  0.4958252142042592  1.0000
  C   C20       1.0  0.8915092055303763  0.9814780070185875  0.6131143715558205  1.0000
  C   C21       1.0  0.8493086298100936  0.9353284728476621  0.2542626045720173  1.0000
  C   C22       1.0  0.886048275313996  0.8057757352177061  0.22745106876418375  1.0000
  C   C23       1.0  0.8697308235564342  0.7436928221653469  0.11084454200902427  1.0000
  N   N3        1.0  0.8185509830812399  0.8081842486826887  0.023723514537755452  1.0000
  C   C24       1.0  0.7820817879622103  0.9334319803035458  0.0467041249412965  1.0000
  C   C25       1.0  0.7967351851529813  0.9992866039841649  0.16200609232860375  1.0000
  H   H9        1.0  0.9483783518802542  0.3967951740247653  0.8094331573827882  1.0000
  H   H10       1.0  0.8911466133184018  0.3348783573816623  0.48961399578673004  1.0000
  H   H11       1.0  0.8668889078791681  0.22191823448125692  0.2873531090681396  1.0000
  H   H12       1.0  0.870604423099203  0.8020567627571435  0.49653168614672594  1.0000
  H   H13       1.0  0.9736780456910678  0.8507787206569394  0.903477442774921  1.0000
  H   H14       1.0  0.927693203679897  0.7540458833895152  0.2950491627502754  1.0000
  H   H15       1.0  0.8979770386839667  0.6442307632402245  0.08946140713746886  1.0000
  H   H16       1.0  0.7415011785559923  0.9818694810294029  0.9755083785304719  1.0000
  H   H17       1.0  0.766563068136526  0.09814295399074435  0.17957076118528326  1.0000
  C   C26       1.0  0.8937674613267462  0.5578946075322053  0.2312837956153866  1.0000
  C   C27       1.0  0.9714279430038795  0.5276555464708577  0.23592909222326264  1.0000
  C   C28       1.0  0.010610465163506388  0.5123986012153092  0.1211843152776304  1.0000
  C   C29       1.0  0.9714347788302714  0.5276536042177902  0.0006371254565560314  1.0000
  C   C30       1.0  0.8937707530176134  0.5578935071711439  0.9939641441863012  1.0000
  C   C31       1.0  0.8553702909012603  0.5728450459770895  0.1098247732155011  1.0000
  C   C32       1.0  0.09235338259028092  0.4805671942078247  0.12781692953374235  1.0000
  N   N4        1.0  0.13426671456696226  0.46424464267359355  0.022293440427916922  1.0000
  C   C33       1.0  0.2039207481048324  0.4371197690487687  0.07349633193380134  1.0000
  C   C34       1.0  0.20194073288387737  0.43789152035776957  0.2068199458506741  1.0000
  O   O1        1.0  0.13243278582003626  0.4649597493027764  0.23727225722746348  1.0000
  H   H18       1.0  0.8641834666018055  0.5694270917419098  0.5569407704071134  1.0000
  H   H19       1.0  0.0015756619769089486  0.515915941983002  0.3290021738914335  1.0000
  H   H20       1.0  0.0015185518251989993  0.5159398652555676  0.9119099094894554  1.0000
  H   H21       1.0  0.7954676379212847  0.5961695630056372  0.10545819506874432  1.0000
  H   H22       1.0  0.8641700555709593  0.5694272041581054  0.6639920887449096  1.0000
  H   H23       1.0  0.25299884489261903  0.4180073307613439  0.01703936712599763  1.0000
  H   H24       1.0  0.24873114499515214  0.41967060519784827  0.2756558924045436  1.0000
  Zn  Zn1       1.0  0.8114398869435396  0.5597880487991196  0.6086858232198982  1.0000
  Zn  Zn2       1.0  0.9760911476946281  0.5559995850703758  0.6165612172105837  1.0000
  C   C35       1.0  0.8937991203292764  0.5521473460977184  0.8497945286937842  1.0000
  C   C36       1.0  0.8937337025859734  0.5636420664295501  0.3754527272996928  1.0000
  C   C37       1.0  0.8923596716804686  0.821345363861909  0.6077540272812125  1.0000
  C   C38       1.0  0.8951731042971413  0.29444231691746836  0.6174932932519805  1.0000
  O   O2        1.0  0.9562067017859617  0.5641269709136394  0.42682580146338256  1.0000
  O   O3        1.0  0.9562926240725379  0.548785997117506  0.8043983212671137  1.0000
  O   O4        1.0  0.9551294087719704  0.7661668203147329  0.6089488653468698  1.0000
  O   O5        1.0  0.9573698608467336  0.3467461593280168  0.6222751573408996  1.0000
  O   O6        1.0  0.8301611176040312  0.7690414758358657  0.6029718803952686  1.0000
  O   O7        1.0  0.8313243236548357  0.5516623856809169  0.798421269081482  1.0000
  O   O8        1.0  0.8312384016796485  0.5670033092118936  0.42084718793884246  1.0000
  O   O9        1.0  0.8324015607928132  0.34962248730905365  0.616296641164773  1.0000
