data_image0
_chemical_formula_structural       NC12NC2H8C6OCH8C12H10Zn2C4O8
_chemical_formula_sum              "N2 C37 H26 O9 Zn2"
_cell_length_a       17.80743265337812
_cell_length_b       9.273888216677433
_cell_length_c       10.299141136925906
_cell_angle_alpha    85.74417000309626
_cell_angle_beta     91.556080336852
_cell_angle_gamma    88.85715842325122

_space_group_name_H-M_alt    "P 1"
_space_group_IT_number       1

loop_
  _space_group_symop_operation_xyz
  'x, y, z'

loop_
  _atom_site_type_symbol
  _atom_site_label
  _atom_site_symmetry_multiplicity
  _atom_site_fract_x
  _atom_site_fract_y
  _atom_site_fract_z
  _atom_site_occupancy
  N   N1        1.0  0.6989600374727227  0.5625469488338346  0.6058103352621316  1.0000
  C   C1        1.0  0.6479532632481656  0.595392597582701  0.5372034538571915  1.0000
  C   C2        1.0  0.5844958357519349  0.6362501993495981  0.4518651349330596  1.0000
  C   C3        1.0  0.5958805831355855  0.6962781368282043  0.32541319524130885  1.0000
  C   C4        1.0  0.5343397642296496  0.7354652802680601  0.24246612293892333  1.0000
  C   C5        1.0  0.46125821735977374  0.7149172612978061  0.28531190419070196  1.0000
  C   C6        1.0  0.44889749283113634  0.654757253330001  0.4122316282891507  1.0000
  C   C7        1.0  0.511295605166772  0.6155737282712457  0.49516219849897314  1.0000
  C   C8        1.0  0.3712548496233626  0.6329711396408655  0.45793425628618856  1.0000
  C   C9        1.0  0.3523414935481107  0.6631241680259445  0.585074112300429  1.0000
  C   C10       1.0  0.2792297696765996  0.6426223044889554  0.6279605936134618  1.0000
  C   C11       1.0  0.22409010105598673  0.5916847943210974  0.5445444113537659  1.0000
  C   C12       1.0  0.14884530090252512  0.5705686001528598  0.5888301085298246  1.0000
  N   N2        1.0  0.0883538105210031  0.5535926002261642  0.6244327624044388  1.0000
  C   C13       1.0  0.24231306940145153  0.561344027039492  0.4179470085731454  1.0000
  C   C14       1.0  0.315371792259199  0.5818623855259679  0.374804673379018  1.0000
  H   H1        1.0  0.6522523466217658  0.7127501959654248  0.2910222736008974  1.0000
  H   H2        1.0  0.5432711472659472  0.7822432173254765  0.1448178952897563  1.0000
  H   H3        1.0  0.4144318849550544  0.7478470668175117  0.21981339692154211  1.0000
  H   H4        1.0  0.5030705963106048  0.5672574336206813  0.5926814822693287  1.0000
  H   H5        1.0  0.3938181328586305  0.704392638141131  0.650771550437593  1.0000
  H   H6        1.0  0.26568307121103485  0.6668530075535444  0.7260459748428503  1.0000
  H   H7        1.0  0.20011231143723643  0.5214827601219334  0.35266665728786983  1.0000
  H   H8        1.0  0.3283990583567248  0.555926357546483  0.2770176670561382  1.0000
  C   C15       1.0  0.895866360510616  0.1345572931471013  0.6139002762210581  1.0000
  C   C16       1.0  0.8782947007282131  0.21826157291633685  0.49705557020176716  1.0000
  C   C17       1.0  0.8543321462270899  0.15412375005576862  0.38500055815510525  1.0000
  C   C18       1.0  0.8478022027254548  0.0032915157384110216  0.3893665229657701  1.0000
  C   C19       1.0  0.866159551665572  0.9183748706537691  0.5037505627740702  1.0000
  C   C20       1.0  0.8914547227763269  0.9815710154875005  0.6163543277033363  1.0000
  O   O1        1.0  0.8372167315227435  0.24398340757780002  0.2719959571975077  1.0000
  C   C21       1.0  0.8121128895641949  0.19367463473660784  0.1512750853485929  1.0000
  H   H9        1.0  0.9020579375375443  0.21099637498371693  0.9338028244819765  1.0000
  H   H10       1.0  0.881467199432308  0.3350654310418577  0.4933577044155575  1.0000
  H   H11       1.0  0.8292377549031136  0.9503085645066992  0.30448201172187006  1.0000
  H   H12       1.0  0.8622551203018395  0.8019963762248781  0.5031313735682992  1.0000
  H   H13       1.0  0.8987730648283422  0.6824029119746431  0.8310716886373759  1.0000
  H   H14       1.0  0.7581989454257922  0.13678556862178626  0.16366472643167995  1.0000
  H   H15       1.0  0.8552407540588859  0.12008714685111888  0.11439413552674726  1.0000
  H   H16       1.0  0.8029586932087215  0.287593719467621  0.07903321317145662  1.0000
  C   C22       1.0  0.8935745056272966  0.5581892014269803  0.23373057346086745  1.0000
  C   C23       1.0  0.971976071348985  0.5719165990684651  0.23571367289680012  1.0000
  C   C24       1.0  0.01181738029356727  0.5787484550332571  0.11958930478767904  1.0000
  C   C25       1.0  0.972197371912434  0.5716676603900133  0.0004577844521533869  1.0000
  C   C26       1.0  0.8937466168042263  0.5579391024429845  0.9965240582961776  1.0000
  C   C27       1.0  0.8549182512401048  0.551282028294833  0.11362972599739729  1.0000
  C   C28       1.0  0.09475833893309527  0.5932724773041376  0.12273199334504237  1.0000
  C   C29       1.0  0.13988513475284003  0.5133805121796204  0.04241862009028963  1.0000
  C   C30       1.0  0.21794645664381584  0.5272307932475375  0.04561484372979541  1.0000
  C   C31       1.0  0.2517846339685188  0.6207654755878589  0.12868799842928902  1.0000
  C   C32       1.0  0.20762990293132555  0.7006446528957548  0.20880320903196736  1.0000
  C   C33       1.0  0.12954700867413416  0.6871564096823437  0.20607690780645282  1.0000
  H   H17       1.0  0.8634118122380693  0.5529822543940452  0.5604383951132137  1.0000
  H   H18       1.0  0.0023581887635162335  0.5753344437068744  0.32793201104342673  1.0000
  H   H19       1.0  0.0025015991757864064  0.5788671420662155  0.9105060695415337  1.0000
  H   H20       1.0  0.7944451119749174  0.5406977843509237  0.11138420388888037  1.0000
  H   H21       1.0  0.7456213271397937  0.5329431809057166  0.7817443744912591  1.0000
  H   H22       1.0  0.11491241624370918  0.4388962974317301  0.9784767653087076  1.0000
  H   H23       1.0  0.2522428808325228  0.46508283116694993  0.9838333394428167  1.0000
  H   H24       1.0  0.3122175752030696  0.631346216412972  0.1309803770191238  1.0000
  H   H25       1.0  0.23390191795150894  0.7733969288204185  0.27288205640543084  1.0000
  H   H26       1.0  0.09632277470355555  0.7514506631899924  0.2678123949314992  1.0000
  Zn  Zn1       1.0  0.8113306940886397  0.5599590643605858  0.6111918417913729  1.0000
  Zn  Zn2       1.0  0.9759832150737798  0.5561687171278562  0.6190618156147005  1.0000
  C   C34       1.0  0.8937423130501816  0.5522410193047367  0.8523230044008578  1.0000
  C   C35       1.0  0.8935733846636233  0.5638885404480425  0.3779308716930283  1.0000
  C   C36       1.0  0.8922835945775369  0.821469178549028  0.6107147229639696  1.0000
  C   C37       1.0  0.8950320559922892  0.29465864974931266  0.6195392146679095  1.0000
  O   O2        1.0  0.956057814848683  0.5643565818274614  0.42931240488766353  1.0000
  O   O3        1.0  0.9562253420752168  0.5488951042133667  0.8069142222138117  1.0000
  O   O4        1.0  0.9550465664405797  0.7663002666056911  0.6118137896179976  1.0000
  O   O5        1.0  0.9572365342228638  0.3469514310773001  0.6244127374461106  1.0000
  O   O6        1.0  0.8300773187517215  0.7691763517061734  0.6058409172675003  1.0000
  O   O7        1.0  0.8312560853425028  0.5517729220633194  0.800941285632859  1.0000
  O   O8        1.0  0.8310885580754196  0.5672343499312162  0.4233379066489362  1.0000
  O   O9        1.0  0.8322672775222222  0.34982918883392444  0.6184383365522874  1.0000
