data_image0
_chemical_formula_structural       NC12NC2H8C7F3H5C6NCOCH9Zn2C4O8
_chemical_formula_sum              "N3 C33 H22 F3 O9 Zn2"
_cell_length_a       17.80743265337812
_cell_length_b       10.29932413504667
_cell_length_c       10.300272075376752
_cell_angle_alpha    85.54748713169306
_cell_angle_beta     91.53227337963534
_cell_angle_gamma    89.4159334836852

_space_group_name_H-M_alt    "P 1"
_space_group_IT_number       1

loop_
  _space_group_symop_operation_xyz
  'x, y, z'

loop_
  _atom_site_type_symbol
  _atom_site_label
  _atom_site_symmetry_multiplicity
  _atom_site_fract_x
  _atom_site_fract_y
  _atom_site_fract_z
  _atom_site_occupancy
  N   N1        1.0  0.7071614113823025  0.4071720818907809  0.6015949702872114  1.0000
  C   C1        1.0  0.6563364686149636  0.43675363406582957  0.5329040808309078  1.0000
  C   C2        1.0  0.5931052253683852  0.4735509365523607  0.44746126156317323  1.0000
  C   C3        1.0  0.6048225399338303  0.5276135412896914  0.3208559157256723  1.0000
  C   C4        1.0  0.5434989212814935  0.5629064454517712  0.23780874409781538  1.0000
  C   C5        1.0  0.4703036396813919  0.5444004272737346  0.28070708891734597  1.0000
  C   C6        1.0  0.4576095707676716  0.4902188671553007  0.4077805344826031  1.0000
  C   C7        1.0  0.5197905050278298  0.45492922224027255  0.49081119581050814  1.0000
  C   C8        1.0  0.3798462738212143  0.47059777859297425  0.4535388609736646  1.0000
  C   C9        1.0  0.36105420519642245  0.4977447458222799  0.580579335661447  1.0000
  C   C10       1.0  0.2878289691962826  0.47928028941061207  0.6235182464392619  1.0000
  C   C11       1.0  0.2324528771801387  0.4334143208315724  0.5402545689084817  1.0000
  C   C12       1.0  0.1570911361514785  0.41439657819453823  0.5845942532148463  1.0000
  N   N2        1.0  0.0965056331876066  0.3991075921695135  0.6202403091192672  1.0000
  C   C13       1.0  0.2505534826831504  0.40609826405367766  0.4137570100280741  1.0000
  C   C14       1.0  0.3237258621303045  0.42457758731851225  0.3705622291027906  1.0000
  H   H1        1.0  0.6612854880223529  0.5424486585737833  0.2864228623354488  1.0000
  H   H2        1.0  0.5526892496618155  0.6050357362261722  0.14004086730107002  1.0000
  H   H3        1.0  0.42365881627693197  0.5740576080434039  0.2151239738336399  1.0000
  H   H4        1.0  0.5112988368556393  0.4114146188379988  0.5884544546423658  1.0000
  H   H5        1.0  0.4027228420091956  0.5349044571738251  0.6461534384110281  1.0000
  H   H6        1.0  0.27438071635468547  0.5010955537690551  0.7215242437835347  1.0000
  H   H7        1.0  0.20816771171941623  0.3702057439302584  0.3485960020033536  1.0000
  H   H8        1.0  0.3366460254525879  0.40122663174848205  0.2728593504264496  1.0000
  C   C15       1.0  0.9019110610414087  0.02175917530104554  0.6108832853338997  1.0000
  C   C16       1.0  0.9768859216998304  0.022294955798493943  0.5716202608479306  1.0000
  C   C17       1.0  0.014251899521706246  0.9056253413353181  0.5495250584260518  1.0000
  C   C18       1.0  0.9766918117197775  0.7870419829877172  0.5717248307756242  1.0000
  C   C19       1.0  0.9017631897387283  0.7845103334763386  0.6109635277510093  1.0000
  C   C20       1.0  0.8647160532319121  0.9024537916854497  0.6298167805365513  1.0000
  C   C21       1.0  0.09558387339180907  0.906886407424088  0.5119344208557521  1.0000
  F   F1        1.0  0.11181333100165536  0.021065395559413114  0.43870494199938626  1.0000
  F   F2        1.0  0.14079255852022143  0.8972922007477718  0.6235448850623815  1.0000
  F   F3        1.0  0.11160670344168522  0.8034254084663534  0.4386869684948036  1.0000
  H   H9        1.0  0.7608430826230855  0.22780412634758895  0.6872261980415693  1.0000
  H   H10       1.0  0.006378766639134392  0.113630969887905  0.5583988378801752  1.0000
  H   H11       1.0  0.006051338551951391  0.6965901477412726  0.558578678651747  1.0000
  H   H12       1.0  0.806928799985552  0.9012363936409717  0.6600757963779809  1.0000
  H   H13       1.0  0.8733575280161637  0.45590452555113964  0.6282551106513838  1.0000
  C   C22       1.0  0.9018432559257369  0.4032665380247822  0.22957098402151255  1.0000
  C   C23       1.0  0.8249496713733057  0.4355816486427402  0.22245308190327928  1.0000
  C   C24       1.0  0.78642924669592  0.45361511487421513  0.10146281188845929  1.0000
  C   C25       1.0  0.8249573223478824  0.4352853924954301  0.9873194554683797  1.0000
  C   C26       1.0  0.9018310040431438  0.40300296920869494  0.9922758611582823  1.0000
  C   C27       1.0  0.9399318753936189  0.38764668638608235  0.11388904995123106  1.0000
  N   N3        1.0  0.7074399987623015  0.4847035347713491  0.09270181175281667  1.0000
  C   C28       1.0  0.6701303601732216  0.566322531944579  0.1783762794152175  1.0000
  O   O1        1.0  0.7074071320798515  0.635012414686082  0.25243216295942283  1.0000
  C   C29       1.0  0.5863824774540299  0.5776093912869464  0.17325434175217214  1.0000
  H   H14       1.0  0.9308317669409691  0.38911579613292724  0.5598348744480941  1.0000
  H   H15       1.0  0.7947050814041273  0.44418321445796627  0.31114875150929766  1.0000
  H   H16       1.0  0.7946569309343687  0.44745071265422265  0.894500469402626  1.0000
  H   H17       1.0  0.9992421210583808  0.3627580902268783  0.11856749472992933  1.0000
  H   H18       1.0  0.9307114687628142  0.3888740933428836  0.6668814808370689  1.0000
  H   H19       1.0  0.6760576848895758  0.4529656335898984  0.014238449790582308  1.0000
  H   H20       1.0  0.5614549901447802  0.48106970072125277  0.15967370829616567  1.0000
  H   H21       1.0  0.5657913893751007  0.6127261729378515  0.26531731708882944  1.0000
  H   H22       1.0  0.5683187650567938  0.6473931142791385  0.09053478192416531  1.0000
  Zn  Zn1       1.0  0.8195177473876827  0.40484137438681356  0.6069830985564904  1.0000
  Zn  Zn2       1.0  0.9841492965717938  0.40142770223006163  0.6148627723284541  1.0000
  C   C30       1.0  0.9018326273611437  0.3978790233617433  0.8481076564988399  1.0000
  C   C31       1.0  0.9018362140499683  0.4083916546036557  0.3737384280652245  1.0000
  C   C32       1.0  0.9017873457766693  0.6403360315008262  0.6057732266531555  1.0000
  C   C33       1.0  0.9018814397586139  0.16593308725514344  0.6160729242936134  1.0000
  O   O2        1.0  0.9643106667615008  0.40881055383815745  0.42511263380729747  1.0000
  O   O3        1.0  0.9643097113615815  0.39486824632392614  0.8027135668935093  1.0000
  O   O4        1.0  0.9642723036703739  0.5906553636806176  0.6070267600676922  1.0000
  O   O5        1.0  0.9643480182748787  0.21302344697047038  0.620799340574836  1.0000
  O   O6        1.0  0.8393189695039298  0.5932456308127396  0.6010465276143317  1.0000
  O   O7        1.0  0.8393563768902982  0.3974600738318128  0.7967332653616677  1.0000
  O   O8        1.0  0.8393573323740859  0.4114023366271171  0.419130770939925  1.0000
  O   O9        1.0  0.8393946838846257  0.21561522043676074  0.6148175750699654  1.0000
