data_image0
_chemical_formula_structural       NC12NC2H8C6NCOCH9C7N4H6Zn2C4O8
_chemical_formula_sum              "N7 C33 H23 O9 Zn2"
_cell_length_a       17.80743265337812
_cell_length_b       10.300268703208216
_cell_length_c       9.274190830515497
_cell_angle_alpha    85.16358681127367
_cell_angle_beta     91.08905223573423
_cell_angle_gamma    89.41550465668445

_space_group_name_H-M_alt    "P 1"
_space_group_IT_number       1

loop_
  _space_group_symop_operation_xyz
  'x, y, z'

loop_
  _atom_site_type_symbol
  _atom_site_label
  _atom_site_symmetry_multiplicity
  _atom_site_fract_x
  _atom_site_fract_y
  _atom_site_fract_z
  _atom_site_occupancy
  N   N1        1.0  0.7133497564309567  0.4161620355338751  0.4461425797789724  1.0000
  C   C1        1.0  0.6628290164343869  0.4461884036252075  0.36982101132083955  1.0000
  C   C2        1.0  0.5999761631308022  0.4835390009871743  0.27488658775951813  1.0000
  C   C3        1.0  0.6122541616182716  0.5384214909497813  0.13421706913801645  1.0000
  C   C4        1.0  0.5512983263026962  0.5742522152038789  0.04194448214051483  1.0000
  C   C5        1.0  0.4779130663383219  0.5554684063631121  0.08960828850435432  1.0000
  C   C6        1.0  0.4646562400158483  0.5004639230524848  0.23079789571121756  1.0000
  C   C7        1.0  0.5264694640783415  0.46463656527356734  0.3230521388398664  1.0000
  C   C8        1.0  0.3866902983954529  0.48054651418284267  0.2816393755546591  1.0000
  C   C9        1.0  0.36733515401739275  0.5068641467700277  0.42278149161338074  1.0000
  C   C10       1.0  0.2939197596664747  0.48812163219651694  0.470490362412215  1.0000
  C   C11       1.0  0.23891287380298762  0.44280150560647136  0.3779880677961376  1.0000
  C   C12       1.0  0.16335477070734822  0.423496629864353  0.4272533134712553  1.0000
  N   N2        1.0  0.1026114061502072  0.40797680857808727  0.46685918187391606  1.0000
  C   C13       1.0  0.2575741503462078  0.4163112624830576  0.23744916990376708  1.0000
  C   C14       1.0  0.3309378218286915  0.4350703085931924  0.1894560177857827  1.0000
  H   H1        1.0  0.6688695990359653  0.5534795829734243  0.09595894316238995  1.0000
  H   H2        1.0  0.5609216269319542  0.6170146112357582  0.9333158416069534  1.0000
  H   H3        1.0  0.43155867461728087  0.5855501630893072  0.016739539586955177  1.0000
  H   H4        1.0  0.5175453837547667  0.42048978083061983  0.43154251008899247  1.0000
  H   H5        1.0  0.40871301751212263  0.5435938970407448  0.4956313057256492  1.0000
  H   H6        1.0  0.2800371142899336  0.5092970311833454  0.5793750236462971  1.0000
  H   H7        1.0  0.2154773150270408  0.3808459106607154  0.16505814709733313  1.0000
  H   H8        1.0  0.3442910433264549  0.4123573699969705  0.08090833545107023  1.0000
  C   C15       1.0  0.9080604502079204  0.03072005638611275  0.45651363657497535  1.0000
  C   C16       1.0  0.921323547115177  0.040765556350272236  0.30720822564154293  1.0000
  C   C17       1.0  0.9290302026449576  0.9285036601917128  0.23233586500421488  1.0000
  C   C18       1.0  0.9211534847332268  0.8056093882966547  0.3072351764581236  1.0000
  C   C19       1.0  0.9079078410961561  0.7934086144548494  0.4565009240249849  1.0000
  C   C20       1.0  0.9017136612740732  0.9065636790293962  0.5304548276964978  1.0000
  N   N3        1.0  0.941441243776816  0.9372250588709823  0.07904861453340373  1.0000
  C   C21       1.0  0.9858462841439671  0.03588401789859397  0.003869622425963337  1.0000
  O   O1        1.0  0.027990728856839286  0.10757642660122002  0.07275239952326906  1.0000
  C   C22       1.0  0.9865242886550701  0.04776690221364466  0.8422464298089531  1.0000
  H   H9        1.0  0.9019269909416124  0.3543745099784017  0.5128826732458689  1.0000
  H   H10       1.0  0.9241743219343173  0.13592206418442498  0.24865212681484494  1.0000
  H   H11       1.0  0.9260524726076  0.719513629189481  0.24842398409681055  1.0000
  H   H12       1.0  0.8915046762923723  0.8980061013270607  0.6456169913049083  1.0000
  H   H13       1.0  0.9017795418506704  0.46142699464535564  0.5126612778750297  1.0000
  H   H14       1.0  0.9209844349522182  0.8625938667495462  0.019976043924239573  1.0000
  H   H15       1.0  0.9292015298343004  0.03219310896436478  0.7982819563465777  1.0000
  H   H16       1.0  0.0053141806906531475  0.1462949362880619  0.8011670035229823  1.0000
  H   H17       1.0  0.025451986164826357  0.9734713153819858  0.8045929280229029  1.0000
  C   C23       1.0  0.9096800743953518  0.4146789478014774  0.03281340218528861  1.0000
  C   C24       1.0  0.9581750807245942  0.32851289962123387  0.11589388574595971  1.0000
  C   C25       1.0  0.0006872586756461185  0.2357722687297441  0.05125598911951523  1.0000
  C   C26       1.0  0.995858394022287  0.22637094117390677  0.901489525355613  1.0000
  C   C27       1.0  0.9486147131943478  0.31385387197023973  0.81700119628012  1.0000
  C   C28       1.0  0.9062882041444206  0.40944974463934747  0.880201165553006  1.0000
  C   C29       1.0  0.041023217477718754  0.12609789096531898  0.8351644648077312  1.0000
  N   N4        1.0  0.09052384225320664  0.04447920300903929  0.9088935562460296  1.0000
  N   N5        1.0  0.11821454169429146  0.9712180404174148  0.8112933967249294  1.0000
  N   N6        1.0  0.08726052266932172  0.005626198713595487  0.6826371363790122  1.0000
  N   N7        1.0  0.038933503677683  0.10201346390035315  0.694746699717796  1.0000
  H   H18       1.0  0.8548066839426024  0.6082812111907472  0.2940319561298421  1.0000
  H   H19       1.0  0.9619330202415126  0.3306484566589911  0.23239996577656852  1.0000
  H   H20       1.0  0.03683102836165464  0.17017173427054044  0.11929515384119682  1.0000
  H   H21       1.0  0.9459437975987508  0.310621794027512  0.7008047246873601  1.0000
  H   H22       1.0  0.8025869846356241  0.5314898548686744  0.5849690438707955  1.0000
  H   H23       1.0  0.006528277050007691  0.1468603429709041  0.6094625005709942  1.0000
  Zn  Zn1       1.0  0.8256822307639682  0.4137964374140881  0.45212926154293775  1.0000
  Zn  Zn2       1.0  0.990278884336075  0.41033174115988724  0.4608842689721695  1.0000
  C   C30       1.0  0.9069287192621713  0.40526476308941195  0.720026737275443  1.0000
  C   C31       1.0  0.9090341923335428  0.4188650153114186  0.192987030429691  1.0000
  C   C32       1.0  0.9079558453070566  0.6492797850896537  0.4507536131139174  1.0000
  C   C33       1.0  0.9080070101275887  0.17484843379658344  0.46226022855256876  1.0000
  O   O2        1.0  0.9712810017748648  0.4189493981865018  0.2500652430592778  1.0000
  O   O3        1.0  0.969606963233242  0.40254977881604637  0.669592957387765  1.0000
  O   O4        1.0  0.9704355324603836  0.5995950035389146  0.4521529596635623  1.0000
  O   O5        1.0  0.9704523768131947  0.2219041846032328  0.46750512961436064  1.0000
  O   O6        1.0  0.8455086821181186  0.6022239951545338  0.4455083979055028  1.0000
  O   O7        1.0  0.8446801128833158  0.4051803311300506  0.6629483186731095  1.0000
  O   O8        1.0  0.8463541584273936  0.42157991595061506  0.24341886966044135  1.0000
  O   O9        1.0  0.8455255330315224  0.22453469241153834  0.4608588643894005  1.0000
