data_image0
_chemical_formula_structural       NC12NC2H8C12H16C6NO2H5Zn2C4O8
_chemical_formula_sum              "N3 C36 H29 O10 Zn2"
_cell_length_a       17.80743265337812
_cell_length_b       10.298977702784466
_cell_length_c       9.27342699604674
_cell_angle_alpha    85.13371055630637
_cell_angle_beta     91.97882923782456
_cell_angle_gamma    89.4320624770977

_space_group_name_H-M_alt    "P 1"
_space_group_IT_number       1

loop_
  _space_group_symop_operation_xyz
  'x, y, z'

loop_
  _atom_site_type_symbol
  _atom_site_label
  _atom_site_symmetry_multiplicity
  _atom_site_fract_x
  _atom_site_fract_y
  _atom_site_fract_z
  _atom_site_occupancy
  N   N1        1.0  0.7009988845481783  0.4169224776264542  0.4448189302192114  1.0000
  C   C1        1.0  0.649865148144324  0.4469802932124418  0.368446232307615  1.0000
  C   C2        1.0  0.5862498047291459  0.48437000753429316  0.27344820958923655  1.0000
  C   C3        1.0  0.5973979057574125  0.5393103902497849  0.1326846148687102  1.0000
  C   C4        1.0  0.5357008836046615  0.5751790640981016  0.04035037794722385  1.0000
  C   C5        1.0  0.46269844268802296  0.5563756111184843  0.08804612653903754  1.0000
  C   C6        1.0  0.45057570432733063  0.5013130330959628  0.22933012924481133  1.0000
  C   C7        1.0  0.5131299672747363  0.46544773270623074  0.321646011360861  1.0000
  C   C8        1.0  0.3730181227910924  0.4813746881668868  0.2802056391689889  1.0000
  C   C9        1.0  0.35480975010921717  0.5076463870681318  0.42141356254791074  1.0000
  C   C10       1.0  0.2817775462375571  0.48888421860172504  0.46915438503341766  1.0000
  C   C11       1.0  0.22601457340582032  0.44359000408686255  0.37661882112062295  1.0000
  C   C12       1.0  0.1508521692428344  0.4242648406228233  0.42591704358845695  1.0000
  N   N2        1.0  0.0904269194014028  0.40872870939942674  0.46554942307414726  1.0000
  C   C13       1.0  0.2435339335536923  0.4171454557627623  0.2360144972896372  1.0000
  C   C14       1.0  0.3165121159620055  0.4359242586677443  0.18798923651481725  1.0000
  H   H1        1.0  0.6537060642085661  0.5543842471167768  0.09440085663273101  1.0000
  H   H2        1.0  0.5444517093724307  0.6179862232656266  0.9316489556965646  1.0000
  H   H3        1.0  0.41575901396410553  0.5864876037706814  0.015128064716300571  1.0000
  H   H4        1.0  0.5050770200593321  0.42125602723872335  0.4302095770452192  1.0000
  H   H5        1.0  0.3967832337010905  0.5443558854066701  0.4942892131608938  1.0000
  H   H6        1.0  0.2687797227806978  0.5100243121620953  0.5780895071243006  1.0000
  H   H7        1.0  0.2008453952279563  0.3817003826061742  0.16359743784305492  1.0000
  H   H8        1.0  0.3289829963002569  0.41324627683867776  0.07939181254151961  1.0000
  C   C15       1.0  0.8957315926653201  0.031419274483523996  0.4553308812612562  1.0000
  C   C16       1.0  0.8981343189734317  0.01858947723729454  0.6074482288851288  1.0000
  C   C17       1.0  0.8995238346781724  0.8948631905451923  0.6844290797546728  1.0000
  C   C18       1.0  0.8980915637169744  0.7833298991017227  0.6071112836224652  1.0000
  C   C19       1.0  0.8957014503133169  0.7942216633923779  0.4550502604266835  1.0000
  C   C20       1.0  0.8945919481042325  0.9187110947104095  0.3800582948600073  1.0000
  C   C21       1.0  0.9019533065864209  0.8807960065484194  0.8489188695387848  1.0000
  C   C22       1.0  0.8287582604764018  0.9336665231199494  0.9100751474897681  1.0000
  C   C23       1.0  0.839826062762833  0.9781686477721885  0.06400043337288674  1.0000
  C   C24       1.0  0.902734691332143  0.9007337231170364  0.15064057043357015  1.0000
  C   C25       1.0  0.9790859762379163  0.9180121685209444  0.07811343941605964  1.0000
  C   C26       1.0  0.9720829374513157  0.945288103864306  0.9119831821175974  1.0000
  H   H9        1.0  0.8908707293150517  0.2629602443267163  0.16817469941780994  1.0000
  H   H10       1.0  0.8986390928589989  0.10494436447748168  0.6663920984964893  1.0000
  H   H11       1.0  0.8988640789746719  0.6877889114545956  0.6658192528278706  1.0000
  H   H12       1.0  0.8927457451888047  0.9278137134944588  0.26277197449698986  1.0000
  H   H13       1.0  0.8945431470740345  0.4709365729274435  0.39650470187769393  1.0000
  H   H14       1.0  0.9065018881103111  0.7752469666445667  0.8864783978132238  1.0000
  H   H15       1.0  0.7860331656631959  0.8555612644729707  0.9116824928045413  1.0000
  H   H16       1.0  0.8050519378421921  0.017482472100470048  0.8389317013292756  1.0000
  H   H17       1.0  0.8540491797356354  0.08340550889030118  0.05684510200641357  1.0000
  H   H18       1.0  0.7864258545349444  0.9666256075737226  0.12209066234232879  1.0000
  H   H19       1.0  0.8878780447507036  0.7957698512291486  0.16015560583430832  1.0000
  H   H20       1.0  0.9072447266418805  0.932805188209744  0.26203305535491694  1.0000
  H   H21       1.0  0.013619632957046823  0.8282456752565093  0.10577260801261001  1.0000
  H   H22       1.0  0.009581639475336301  0.9998699712948574  0.12351036971606522  1.0000
  H   H23       1.0  0.9688155514399605  0.0524732079538055  0.8847485156145432  1.0000
  H   H24       1.0  0.023520290535900434  0.9084647706507218  0.8633414077754278  1.0000
  C   C27       1.0  0.8939830729360801  0.41558519270480887  0.03127048986192249  1.0000
  C   C28       1.0  0.9375961419693899  0.5075042659420439  0.09929093405546352  1.0000
  C   C29       1.0  0.9861483371717883  0.5907952477783194  0.02033081729538444  1.0000
  C   C30       1.0  0.9909199249365745  0.5813324475123294  0.8709459164243012  1.0000
  C   C31       1.0  0.947147021630707  0.492254148513825  0.8014323763688869  1.0000
  C   C32       1.0  0.8974499540547419  0.41005573971567255  0.8791107408691494  1.0000
  N   N3        1.0  0.03082600480335107  0.6834968785780029  0.0920896068837973  1.0000
  O   O1        1.0  0.025996129633373055  0.6928885373781468  0.23864406923965742  1.0000
  O   O2        1.0  0.0745014591833939  0.7571198858134371  0.022539756435259406  1.0000
  H   H25       1.0  0.7889145105302182  0.3018244672872965  0.31520372781113837  1.0000
  H   H26       1.0  0.9350117722264335  0.5120666206001994  0.2152633330555409  1.0000
  H   H27       1.0  0.028044864239047174  0.6438887073244244  0.8072529836854363  1.0000
  H   H28       1.0  0.950876881195126  0.48983433850597535  0.6853218674564481  1.0000
  H   H29       1.0  0.7397473846719961  0.24717798952926073  0.7811598719989057  1.0000
  Zn  Zn1       1.0  0.8133794408045901  0.4145544112162476  0.45080962621520015  1.0000
  Zn  Zn2       1.0  0.9780464092186554  0.4110861045211076  0.4595705059444297  1.0000
  C   C33       1.0  0.8967931828868617  0.40592681781757944  0.7188525503575134  1.0000
  C   C34       1.0  0.8946344658091895  0.41971529790174555  0.1915278185563567  1.0000
  C   C35       1.0  0.8956797608367012  0.6500734108259247  0.44935053702222416  1.0000
  C   C36       1.0  0.8957478320463889  0.175567145119786  0.46102990644007735  1.0000
  O   O3        1.0  0.9573433357758435  0.41977952832375776  0.24863635231876957  1.0000
  O   O4        1.0  0.959062730151649  0.4032292457569622  0.6683929063991811  1.0000
  O   O5        1.0  0.9581627915043925  0.600380715219885  0.4507680785434187  1.0000
  O   O6        1.0  0.9582432177904503  0.22262807004137297  0.4662610689423867  1.0000
  O   O7        1.0  0.8331825760400093  0.6030124468810087  0.44411906021999115  1.0000
  O   O8        1.0  0.8340825143074415  0.4058625383767256  0.6617438105300704  1.0000
  O   O9        1.0  0.8323631128863063  0.42241278700131457  0.24198552085521108  1.0000
  O   O10       1.0  0.8332629953407769  0.2252613187234178  0.45961034571372195  1.0000
