data_image0
_chemical_formula_structural       NC12NC2H8C7NC2OH7C7N4H6Zn2C4O8
_chemical_formula_sum              "N7 C34 H21 O9 Zn2"
_cell_length_a       17.80743265337812
_cell_length_b       10.300333997791364
_cell_length_c       9.274190830515497
_cell_angle_alpha    85.16363196635129
_cell_angle_beta     91.08905223573423
_cell_angle_gamma    89.43519355652523

_space_group_name_H-M_alt    "P 1"
_space_group_IT_number       1

loop_
  _space_group_symop_operation_xyz
  'x, y, z'

loop_
  _atom_site_type_symbol
  _atom_site_label
  _atom_site_symmetry_multiplicity
  _atom_site_fract_x
  _atom_site_fract_y
  _atom_site_fract_z
  _atom_site_occupancy
  N   N1        1.0  0.7136313821011725  0.41614726009199776  0.4461546356115105  1.0000
  C   C1        1.0  0.6631166133111638  0.44617331490501466  0.3698333227688062  1.0000
  C   C2        1.0  0.6002711877501332  0.48352352257175846  0.27489921717430965  1.0000
  C   C3        1.0  0.6125601004674938  0.5384054399211897  0.13423016576919422  1.0000
  C   C4        1.0  0.5516113906442556  0.5742357903375692  0.04195788379979026  1.0000
  C   C5        1.0  0.4782223952296847  0.5554521774765491  0.08962153025646624  1.0000
  C   C6        1.0  0.46495463041706053  0.5004482680519071  0.23081066920841065  1.0000
  C   C7        1.0  0.5267607296566922  0.4646212840755839  0.32306460733762066  1.0000
  C   C8        1.0  0.3869847279126129  0.4805310669893592  0.28165197949431553  1.0000
  C   C9        1.0  0.36763481720183794  0.5068484249930987  0.4227943195958819  1.0000
  C   C10       1.0  0.2942156956127255  0.4881061059684926  0.47050303083909273  1.0000
  C   C11       1.0  0.2391997971428382  0.4427864522232765  0.3780003504113332  1.0000
  C   C12       1.0  0.1636378549748095  0.42348177789742447  0.42726543174342857  1.0000
  N   N2        1.0  0.10289140406175612  0.4079621185362854  0.46687116802535633  1.0000
  C   C13       1.0  0.257855805692505  0.4162964854842297  0.2374612270066796  1.0000
  C   C14       1.0  0.3312232077007342  0.43505533587297895  0.1894682345850518  1.0000
  H   H1        1.0  0.6691785324191122  0.5534633748371303  0.09597216798358521  1.0000
  H   H2        1.0  0.5612431952357301  0.6169977402105478  0.9333296073038686  1.0000
  H   H3        1.0  0.4318739857300891  0.585533620346534  0.01675303742602141  1.0000
  H   H4        1.0  0.5178278700639062  0.42047496023547093  0.43155460276376423  1.0000
  H   H5        1.0  0.409019984974099  0.5435777920461642  0.4956444463896852  1.0000
  H   H6        1.0  0.2803372612909806  0.5092812840230625  0.579387872340021  1.0000
  H   H7        1.0  0.215751917540946  0.3808315036875134  0.16506990228257434  1.0000
  H   H8        1.0  0.344571912380228  0.4123426342508434  0.08092035889436922  1.0000
  C   C15       1.0  0.9082654247937383  0.030709302430065977  0.456522411127662  1.0000
  C   C16       1.0  0.8890331269976463  0.041265789530388286  0.3084066144764981  1.0000
  C   C17       1.0  0.8793298339917299  0.9295034319327646  0.23367668037314315  1.0000
  C   C18       1.0  0.8890311189595245  0.8059742926947031  0.3083938318777981  1.0000
  C   C19       1.0  0.9082645236889118  0.79338983024788  0.45651620655321445  1.0000
  C   C20       1.0  0.917774554948649  0.9063276092414753  0.5297542186990905  1.0000
  C   C21       1.0  0.8590879025736781  0.9423579170175721  0.07777363081782962  1.0000
  N   N3        1.0  0.8487094365998765  0.8400245697964115  0.9978346876850099  1.0000
  C   C22       1.0  0.8314614384222481  0.8965291170815483  0.8649875432848795  1.0000
  C   C23       1.0  0.831951411392399  0.02970203320525111  0.8687642177908717  1.0000
  O   O1        1.0  0.8491631136891191  0.054863892166354455  0.0013327057891887595  1.0000
  H   H9        1.0  0.9155855603663338  0.35411523666482947  0.5129508585993632  1.0000
  H   H10       1.0  0.8815675752099041  0.1366337015575385  0.25090783627931845  1.0000
  H   H11       1.0  0.881580900550896  0.7195368920441013  0.2510174536987986  1.0000
  H   H12       1.0  0.9326092587365847  0.8974014315668096  0.6440019261658194  1.0000
  H   H13       1.0  0.9155913185170896  0.4611649289925958  0.5129745121638369  1.0000
  H   H14       1.0  0.8193087109966604  0.8438076355359421  0.7713836214325105  1.0000
  H   H15       1.0  0.8203648702344521  0.10209957932380576  0.7795237398908177  1.0000
  C   C24       1.0  0.9099614051306902  0.4146641878333073  0.03282544539225363  1.0000
  C   C25       1.0  0.9584392760118272  0.32849903866137264  0.11590519541861033  1.0000
  C   C26       1.0  0.0009330110575649364  0.23575937537370684  0.0512665092882203  1.0000
  C   C27       1.0  0.9961022768051716  0.22635814590605818  0.9014999654905171  1.0000
  C   C28       1.0  0.9488759933077636  0.3138401639544661  0.8170123811600014  1.0000
  C   C29       1.0  0.9065684949720306  0.4094350392297552  0.8802131642435973  1.0000
  C   C30       1.0  0.041247159417492574  0.1260861418903414  0.8351740513149633  1.0000
  N   N4        1.0  0.09073155305761604  0.044468305497759264  0.9089024479307697  1.0000
  N   N5        1.0  0.11840768338619911  0.9712079072720922  0.8113016647350579  1.0000
  N   N6        1.0  0.08746050695437746  0.005615706572811963  0.6826456973068891  1.0000
  N   N7        1.0  0.0391526560575457  0.1020019661088043  0.6947560811935318  1.0000
  H   H16       1.0  0.8551265154750346  0.6082644312849439  0.2940456474790447  1.0000
  H   H17       1.0  0.9621976402172113  0.330634573417923  0.2324112936292848  1.0000
  H   H18       1.0  0.03706373506516947  0.17015952535375534  0.11930511555046075  1.0000
  H   H19       1.0  0.9462044349636011  0.3106081197334303  0.7008158820524586  1.0000
  H   H20       1.0  0.8028915450220656  0.5314738761608933  0.5849820814927336  1.0000
  H   H21       1.0  0.006756347923699613  0.1468483772721254  0.6094722638296419  1.0000
  Zn  Zn1       1.0  0.8259633859985  0.4137816866535371  0.45214129723706353  1.0000
  Zn  Zn2       1.0  0.990559350562301  0.41031702654803714  0.46089627517122556  1.0000
  C   C31       1.0  0.9072081778416318  0.405250101343575  0.7200387003391533  1.0000
  C   C32       1.0  0.9093163555329906  0.41885021166816316  0.19299910927278185  1.0000
  C   C33       1.0  0.908283830038461  0.6492625774276821  0.45076765348528625  1.0000
  C   C34       1.0  0.9082406468649593  0.17483617608573332  0.46227023007472523  1.0000
  O   O2        1.0  0.9715631817551492  0.4189345936628426  0.2500773226207229  1.0000
  O   O3        1.0  0.9698858818961912  0.4025351453968351  0.6696048973387279  1.0000
  O   O4        1.0  0.9707536366064082  0.5995783142601392  0.45216657706680263  1.0000
  O   O5        1.0  0.9706953713126195  0.22189143593902183  0.46751553172362303  1.0000
  O   O6        1.0  0.8458273090796874  0.6022072784463315  0.4455220376894322  1.0000
  O   O7        1.0  0.8449595546721783  0.40516567026512895  0.6629602810180482  1.0000
  O   O8        1.0  0.8466368615267209  0.4215650839816061  0.24343097161556781  1.0000
  O   O9        1.0  0.84576905064801  0.22452191630208107  0.46086928889225964  1.0000
