data_image0
_chemical_formula_structural       NC12NC2H8C9NC2H9C10H6Zn2C4O8
_chemical_formula_sum              "N3 C39 H23 Zn2 O8"
_cell_length_a       17.80743265337812
_cell_length_b       9.273595471060368
_cell_length_c       10.302835742178797
_cell_angle_alpha    85.65060667368898
_cell_angle_beta     91.5341157365678
_cell_angle_gamma    88.84631592348521

_space_group_name_H-M_alt    "P 1"
_space_group_IT_number       1

loop_
  _space_group_symop_operation_xyz
  'x, y, z'

loop_
  _atom_site_type_symbol
  _atom_site_label
  _atom_site_symmetry_multiplicity
  _atom_site_fract_x
  _atom_site_fract_y
  _atom_site_fract_z
  _atom_site_occupancy
  N   N1        1.0  0.6990760593440317  0.5623725787504574  0.6036397251475194  1.0000
  C   C1        1.0  0.6480805895754832  0.5952016707609891  0.5350026041573261  1.0000
  C   C2        1.0  0.5846372231761079  0.6360386783480827  0.4496266679523875  1.0000
  C   C3        1.0  0.5960428711577066  0.6960360069184541  0.3231198811247751  1.0000
  C   C4        1.0  0.5345157861117051  0.7352030380650807  0.2401371593611732  1.0000
  C   C5        1.0  0.4614271839940185  0.7146653525319631  0.28300188735920684  1.0000
  C   C6        1.0  0.4490454701182218  0.6545360830003191  0.4099765050393127  1.0000
  C   C7        1.0  0.5114298518569382  0.615372665476964  0.4929427248811209  1.0000
  C   C8        1.0  0.3713952844696767  0.6327610156578303  0.45569911362947146  1.0000
  C   C9        1.0  0.35244941700170973  0.6629612091766717  0.5827367670045893  1.0000
  C   C10       1.0  0.2793306228379045  0.6424697007855176  0.6256420988862217  1.0000
  C   C11       1.0  0.22421624235885712  0.591495604069866  0.5423471333677843  1.0000
  C   C12       1.0  0.1489641343062892  0.5703901127756152  0.5866522012719366  1.0000
  N   N2        1.0  0.0884667688807664  0.5534227172174073  0.6222704279358451  1.0000
  C   C13       1.0  0.24247162357502972  0.561107815594724  0.4158520472156977  1.0000
  C   C14       1.0  0.3155374723470034  0.5816157379963738  0.37269093295536937  1.0000
  H   H1        1.0  0.6524203003521911  0.7124997679064913  0.28871378834962336  1.0000
  H   H2        1.0  0.5434632551433374  0.7819574151010771  0.14244584179219477  1.0000
  H   H3        1.0  0.4146114441466152  0.7475796361718146  0.21747177712052457  1.0000
  H   H4        1.0  0.503188981509711  0.5670796099751458  0.5905078235075325  1.0000
  H   H5        1.0  0.3939059935361153  0.7042587027461265  0.6483367358486343  1.0000
  H   H6        1.0  0.2657587195949287  0.6667369659879634  0.7236469497073283  1.0000
  H   H7        1.0  0.2002906555418178  0.521217916862833  0.35066655547865766  1.0000
  H   H8        1.0  0.32859009253842997  0.5556429369412696  0.27498730493549406  1.0000
  C   C15       1.0  0.8960349245524414  0.13430807351994156  0.6124705623863798  1.0000
  C   C16       1.0  0.8876937399875066  0.21815729725946498  0.4934048427383402  1.0000
  C   C17       1.0  0.8727386186782826  0.15379268119806255  0.3777466192376018  1.0000
  C   C18       1.0  0.8657476924677061  0.0034860836205812262  0.37793492430792286  1.0000
  C   C19       1.0  0.8752436076610774  0.9184428568246004  0.4961904162941406  1.0000
  C   C20       1.0  0.8915151303674428  0.9814759556744572  0.6134510967387694  1.0000
  C   C21       1.0  0.849316087677863  0.9353258907254702  0.25468645620895103  1.0000
  C   C22       1.0  0.8860558477218385  0.8057731134385404  0.22788143003617  1.0000
  C   C23       1.0  0.8697388941125435  0.7436900279133334  0.11130321445047486  1.0000
  N   N3        1.0  0.8185594258222522  0.808181325569863  0.024203339295815196  1.0000
  C   C24       1.0  0.7820901325290328  0.9334290911813675  0.04717837018358195  1.0000
  C   C25       1.0  0.796743037144673  0.9992838854052591  0.1624523431384226  1.0000
  H   H9        1.0  0.948383438034739  0.3967934130559774  0.8097222178717509  1.0000
  H   H10       1.0  0.8911530657545643  0.334876123367984  0.4899807059127572  1.0000
  H   H11       1.0  0.8668962243828311  0.221915701303268  0.28776892658463016  1.0000
  H   H12       1.0  0.8706108459826849  0.8020545389754291  0.4968967167106435  1.0000
  H   H13       1.0  0.9736827300841843  0.8507770987891623  0.9037436700334034  1.0000
  H   H14       1.0  0.9277004873056766  0.7540433615947684  0.2954631117240172  1.0000
  H   H15       1.0  0.8979852005897789  0.6442279373603914  0.0899252712398999  1.0000
  H   H16       1.0  0.7415098272742092  0.981866486601514  0.9759999095533889  1.0000
  H   H17       1.0  0.7665708450911715  0.09814026139176102  0.18001274742835416  1.0000
  C   C26       1.0  0.8937750173610096  0.5578919914220304  0.23171322633071822  1.0000
  C   C27       1.0  0.8564667335135073  0.6933446974100124  0.21963942407657044  1.0000
  C   C28       1.0  0.8379053635473271  0.7607348029488543  0.09652904664698125  1.0000
  C   C29       1.0  0.8564669235592715  0.6933447594353654  0.9843368800760111  1.0000
  C   C30       1.0  0.8937750526718812  0.5578920814707595  0.9942084221452787  1.0000
  C   C31       1.0  0.9122347519609204  0.49087142148463636  0.11838997073640001  1.0000
  C   C32       1.0  0.7996607475282101  0.8995868357652548  0.08528111255326176  1.0000
  C   C33       1.0  0.7676415396723638  0.015836211331373473  0.07586402500360823  1.0000
  C   C34       1.0  0.7301473737670463  0.15196308713608797  0.0648367901154947  1.0000
  C   C35       1.0  0.6981329802352114  0.2681946283217651  0.055421276638706995  1.0000
  H   H18       1.0  0.907903016193443  0.5065986223853267  0.5636075994374132  1.0000
  H   H19       1.0  0.8417493268770998  0.7467782486338399  0.3057291200194743  1.0000
  H   H20       1.0  0.8417495452456899  0.746778401459862  0.889590253051094  1.0000
  H   H21       1.0  0.941006344041943  0.38641186083239165  0.12685199423643345  1.0000
  H   H22       1.0  0.907902805103452  0.506598339329764  0.6706242355142851  1.0000
  H   H23       1.0  0.6700216674942794  0.370255610613321  0.04715369290054072  1.0000
  Zn  Zn1       1.0  0.8114458306995614  0.5597859909047183  0.6090236236203839  1.0000
  Zn  Zn2       1.0  0.9760970578066167  0.5559975388244789  0.6168971055258705  1.0000
  C   C36       1.0  0.8938040340581885  0.5521456448274809  0.8500737897516619  1.0000
  C   C37       1.0  0.8937406427241503  0.563639663559808  0.37584715490525  1.0000
  C   C38       1.0  0.892365619417164  0.8213433045892871  0.6080920539145982  1.0000
  C   C39       1.0  0.8951790104272596  0.2944402720502062  0.6178289552663607  1.0000
  O   O1        1.0  0.9562134224560819  0.5641246440298708  0.4272077560809435  1.0000
  O   O2        1.0  0.9562977317360666  0.5487842287016864  0.8046886041756312  1.0000
  O   O3        1.0  0.9551353514042644  0.7661647628093979  0.6092866018827461  1.0000
  O   O4        1.0  0.9573757465485158  0.3467441215336151  0.6226096583553908  1.0000
  O   O5        1.0  0.8301670857702705  0.7690394094899653  0.6033110680972036  1.0000
  O   O6        1.0  0.831329456852597  0.5516606084244322  0.7987130031723817  1.0000
  O   O7        1.0  0.8312451478906715  0.5670009734851507  0.4212305941178671  1.0000
  O   O8        1.0  0.8324074720350824  0.3496204406718224  0.6166325937170924  1.0000
