data_image0
_chemical_formula_structural       NC12NC2H8C6NCOCH9C6NCSNH8Zn2C4O8
_chemical_formula_sum              "N5 C33 H25 O9 S1 Zn2"
_cell_length_a       17.80743265337812
_cell_length_b       10.300268703208216
_cell_length_c       9.275081717742442
_cell_angle_alpha    86.13080438359454
_cell_angle_beta     91.71745222805815
_cell_angle_gamma    89.41550465668445

_space_group_name_H-M_alt    "P 1"
_space_group_IT_number       1

loop_
  _space_group_symop_operation_xyz
  'x, y, z'

loop_
  _atom_site_type_symbol
  _atom_site_label
  _atom_site_symmetry_multiplicity
  _atom_site_fract_x
  _atom_site_fract_y
  _atom_site_fract_z
  _atom_site_occupancy
  N   N1        1.0  0.7046399586058154  0.3926707717524671  0.4478624195185954  1.0000
  C   C1        1.0  0.653691415245618  0.42154330804846896  0.3716253252629964  1.0000
  C   C2        1.0  0.5903064284109224  0.45745868390504296  0.27679597697574687  1.0000
  C   C3        1.0  0.601795935591912  0.5102145278028707  0.13628215412473899  1.0000
  C   C4        1.0  0.5403228870706125  0.5446502722777795  0.044111696228614994  1.0000
  C   C5        1.0  0.46720479583845465  0.5265870463126026  0.09172274736069408  1.0000
  C   C6        1.0  0.45473937606189707  0.4737170717818202  0.2327560831528599  1.0000
  C   C7        1.0  0.5170697105076888  0.43928441645892424  0.32490821748348386  1.0000
  C   C8        1.0  0.3770584149067648  0.4545682859521669  0.283541290653474  1.0000
  C   C9        1.0  0.35849441087368517  0.48301970934657423  0.42452718786162813  1.0000
  C   C10       1.0  0.2853464378535249  0.46499845893415315  0.4721832535505055  1.0000
  C   C11       1.0  0.2298210512099901  0.4182798798381482  0.37978334228068444  1.0000
  C   C12       1.0  0.1545390933539667  0.3997197975798781  0.42899406021973574  1.0000
  N   N2        1.0  0.0940177305725275  0.3847987390178049  0.4685560920737435  1.0000
  C   C13       1.0  0.2476945686118107  0.3896649653781141  0.23939999558523373  1.0000
  C   C14       1.0  0.3207892252886249  0.4076984495535223  0.191459963225322  1.0000
  H   H1        1.0  0.658196925700554  0.5246942323133612  0.0980663729901261  1.0000
  H   H2        1.0  0.5493372943195931  0.5857704172152007  0.9356032879959204  1.0000
  H   H3        1.0  0.42044195475611285  0.555567171074395  0.018934650997728175  1.0000
  H   H4        1.0  0.5087537485270569  0.39677779275118374  0.4332785094708882  1.0000
  H   H5        1.0  0.40028061759492967  0.5208508053247338  0.49729637037687646  1.0000
  H   H6        1.0  0.2720741209236396  0.4878199795441833  0.5809473991150103  1.0000
  H   H7        1.0  0.20519196171746942  0.35310520386925726  0.16708909657664273  1.0000
  H   H8        1.0  0.3335340071990622  0.3833444837913573  0.08303242358536034  1.0000
  C   C15       1.0  0.8994087850059855  0.007385582557062342  0.45822199742638925  1.0000
  C   C16       1.0  0.9118349840572957  0.015173878773576899  0.3090818406377205  1.0000
  C   C17       1.0  0.9191219594315124  0.9017800599876387  0.23429235019140737  1.0000
  C   C18       1.0  0.911665072742078  0.7800181181632249  0.3091087616246113  1.0000
  C   C19       1.0  0.8992561046368854  0.7700739484370811  0.4582092989468971  1.0000
  C   C20       1.0  0.8934764567666895  0.8843470503786374  0.5320813489935026  1.0000
  N   N3        1.0  0.9306737834026466  0.9081840573479222  0.08117476104312615  1.0000
  C   C21       1.0  0.9746574248605848  0.005706458084256072  0.006078978512400468  1.0000
  O   O1        1.0  0.01718797646739989  0.07844023870796724  0.07488551480673  1.0000
  C   C22       1.0  0.9744294869645989  0.01514591805319121  0.844634673601488  1.0000
  H   H9        1.0  0.8935912896798772  0.3318922249617273  0.5145286437466046  1.0000
  H   H10       1.0  0.9143575358518696  0.1094451337231035  0.25059055284480825  1.0000
  H   H11       1.0  0.9162344077225263  0.6930332496596031  0.2503626626395896  1.0000
  H   H12       1.0  0.8839129873574489  0.877530497771499  0.647116048870108  1.0000
  H   H13       1.0  0.8934425996070446  0.43894136256672495  0.5143074934204859  1.0000
  H   H14       1.0  0.9098858565872204  0.8326598043057304  0.02216757310880224  1.0000
  H   H15       1.0  0.9168602951890655  0.998907468555741  0.8007188608769695  1.0000
  H   H16       1.0  0.9929891175276249  0.11305291211047797  0.803600714826814  1.0000
  H   H17       1.0  0.013146126250030088  0.9402810844352835  0.8070228474465906  1.0000
  C   C23       1.0  0.8986534529509876  0.38493896093064683  0.034990722731014  1.0000
  C   C24       1.0  0.8314903368383015  0.41459994963193103  0.10212428552998132  1.0000
  C   C25       1.0  0.7676233665089118  0.4559990339888449  0.020390800096765194  1.0000
  C   C26       1.0  0.7696203952749796  0.47021844463609597  0.8692458810320876  1.0000
  C   C27       1.0  0.8354127912796437  0.43651262766443355  0.8009318930903166  1.0000
  C   C28       1.0  0.9000114582029445  0.3925205790661377  0.8814406231909366  1.0000
  N   N4        1.0  0.7041145201756489  0.5110090035227299  0.7829785441727926  1.0000
  C   C29       1.0  0.6479970469975924  0.5995380041203417  0.8278587789740506  1.0000
  S   S1        1.0  0.5634956125092732  0.5989068094748065  0.7534008103349472  1.0000
  N   N5        1.0  0.6669678502344238  0.6979580956654592  0.9238594240957858  1.0000
  H   H18       1.0  0.003310484029915406  0.26793356265859036  0.33100855841212495  1.0000
  H   H19       1.0  0.828693400604929  0.4081410407712873  0.21890020041777558  1.0000
  H   H20       1.0  0.7165566752734326  0.4765833816208205  0.0754651589095745  1.0000
  H   H21       1.0  0.8356101640209214  0.44282481339570245  0.6838315259765184  1.0000
  H   H22       1.0  0.02395302211622674  0.38044627978063184  0.6085540075886358  1.0000
  H   H23       1.0  0.6971715994988736  0.47487585282817135  0.6808233574675446  1.0000
  H   H24       1.0  0.7225608211675039  0.711807925827187  0.957664115978937  1.0000
  H   H25       1.0  0.6258102654553025  0.7617721892657945  0.9564033281576543  1.0000
  Zn  Zn1       1.0  0.8170059899351955  0.3903956804698341  0.45384247510626397  1.0000
  Zn  Zn2       1.0  0.9816517177297334  0.38706334268446807  0.4625877923222872  1.0000
  C   C30       1.0  0.8997541174004824  0.3859140883386134  0.7214434366805758  1.0000
  C   C31       1.0  0.8989053880896329  0.39154653822839025  0.19498706767547547  1.0000
  C   C32       1.0  0.8992718935908247  0.625858231050572  0.45246834927179114  1.0000
  C   C33       1.0  0.8993875561527956  0.15160083711998795  0.46396222896375017  1.0000
  O   O2        1.0  0.9614721365972776  0.39249383125958137  0.25200210502458287  1.0000
  O   O3        1.0  0.9621496661765737  0.38243664464560134  0.6710654778854521  1.0000
  O   O4        1.0  0.9617594244660892  0.5761946048635698  0.4538661469973462  1.0000
  O   O5        1.0  0.9618623219501005  0.19873588050055435  0.4692013248666138  1.0000
  O   O6        1.0  0.8367953295293095  0.5787231437922569  0.4472289395700084  1.0000
  O   O7        1.0  0.83718557080077  0.38496674310924095  0.6644281935866962  1.0000
  O   O8        1.0  0.8365080385005479  0.39502386894832253  0.24536308796162842  1.0000
  O   O9        1.0  0.8368982240255137  0.20126590986886317  0.46256241585780655  1.0000
