data_image0
_chemical_formula_structural       NC12NC2H8C6NCSNH8C7NC2OH7Zn2C4O8
_chemical_formula_sum              "N5 C34 H23 S1 O9 Zn2"
_cell_length_a       17.80743265337812
_cell_length_b       9.27507834575679
_cell_length_c       10.300337369960102
_cell_angle_alpha    85.3820259438413
_cell_angle_beta     91.53453705670806
_cell_angle_gamma    90.00966593732542

_space_group_name_H-M_alt    "P 1"
_space_group_IT_number       1

loop_
  _space_group_symop_operation_xyz
  'x, y, z'

loop_
  _atom_site_type_symbol
  _atom_site_label
  _atom_site_symmetry_multiplicity
  _atom_site_fract_x
  _atom_site_fract_y
  _atom_site_fract_z
  _atom_site_occupancy
  N   N1        1.0  0.7154991405822946  0.5623157202443443  0.5974754382913765  1.0000
  C   C1        1.0  0.6648485907511975  0.5951436756602202  0.5286992478744041  1.0000
  C   C2        1.0  0.6018342797338517  0.6359792694006461  0.44315032028573453  1.0000
  C   C3        1.0  0.6138702870792233  0.6959745223492952  0.31638911556507465  1.0000
  C   C4        1.0  0.5527547070768007  0.735140199091249  0.23324020998911998  1.0000
  C   C5        1.0  0.47945032477290156  0.7146032247148597  0.27619192096518796  1.0000
  C   C6        1.0  0.4664368661086174  0.6544760350889292  0.40342156208472857  1.0000
  C   C7        1.0  0.5284097807323157  0.6153139718583747  0.48655394825820264  1.0000
  C   C8        1.0  0.38855790083417885  0.6327017213425923  0.449236461179902  1.0000
  C   C9        1.0  0.3699301423843677  0.6629005879325325  0.5761923676990486  1.0000
  C   C10       1.0  0.2965960537799265  0.6424097888964837  0.6191845202521571  1.0000
  C   C11       1.0  0.2409453039031121  0.5914377378764637  0.5360593785034125  1.0000
  C   C12       1.0  0.1654714510724115  0.5703329770226744  0.5804538961966974  1.0000
  N   N2        1.0  0.10479581775834632  0.5533661686895732  0.61614403445859  1.0000
  C   C13       1.0  0.25888060576867566  0.5610512826026184  0.40964687040503556  1.0000
  C   C14       1.0  0.3321619204927352  0.5815584954085204  0.36639881215651937  1.0000
  H   H1        1.0  0.670420693386683  0.7124377133133761  0.2819132833249096  1.0000
  H   H2        1.0  0.5621934027673656  0.7818929573286695  0.1353508477611971  1.0000
  H   H3        1.0  0.4329804139181099  0.7475163639505595  0.21052317822878375  1.0000
  H   H4        1.0  0.519661503316388  0.5670225933725344  0.584322797720243  1.0000
  H   H5        1.0  0.4118212592945721  0.7041964269338241  0.6416542938024781  1.0000
  H   H6        1.0  0.2832797486290369  0.6666759938794251  0.7171226938147235  1.0000
  H   H7        1.0  0.21627990059541233  0.5211629847388075  0.3445942739713732  1.0000
  H   H8        1.0  0.3449410094242549  0.5555868184509265  0.268768293492363  1.0000
  C   C15       1.0  0.9079567591873696  0.13426734623953163  0.607904421708328  1.0000
  C   C16       1.0  0.8832908409580144  0.21758986333836217  0.4948370968832432  1.0000
  C   C17       1.0  0.8661084991910808  0.15288512361790496  0.3801197924984785  1.0000
  C   C18       1.0  0.8740219306674223  0.00312949668042406  0.375241983392385  1.0000
  C   C19       1.0  0.8959734550725407  0.9183809018608909  0.4885390472744149  1.0000
  C   C20       1.0  0.9123453224081872  0.9814033257845535  0.6057265837336006  1.0000
  N   N3        1.0  0.8556042002128268  0.9341209385991757  0.2584926228861617  1.0000
  C   C21       1.0  0.8653032376704738  0.00042422771933314785  0.12923872610598397  1.0000
  S   S1        1.0  0.8162265881382658  0.9416333209988338  0.007688893444750544  1.0000
  N   N4        1.0  0.9230479490950254  0.10508209364796928  0.1029034698185105  1.0000
  H   H9        1.0  0.9127368559609483  0.39629016934662475  0.8227147487712074  1.0000
  H   H10       1.0  0.8786054772705524  0.3340869173936789  0.49432655007885207  1.0000
  H   H11       1.0  0.8464183183454703  0.22002466791849873  0.2952241596127916  1.0000
  H   H12       1.0  0.8990885084109806  0.8020256624388501  0.4853796768916554  1.0000
  H   H13       1.0  0.9781469758064694  0.6839268236877613  0.7911015443523763  1.0000
  H   H14       1.0  0.8344168877442141  0.828783345287627  0.2681927013896386  1.0000
  H   H15       1.0  0.9617226537741237  0.1302436457978362  0.1755400491289263  1.0000
  H   H16       1.0  0.9296313788913734  0.15319998517715794  0.008714468639654083  1.0000
  C   C22       1.0  0.9101493997911072  0.5578358521293219  0.22547532007783655  1.0000
  C   C23       1.0  0.9874919046069484  0.5275979315226667  0.2302333604140776  1.0000
  C   C24       1.0  0.02651399336041127  0.5123415616770086  0.11554546767156548  1.0000
  C   C25       1.0  0.9874987200097055  0.5275959893428501  0.9949414008888939  1.0000
  C   C26       1.0  0.9101526799111997  0.5578347518097602  0.9881556727513514  1.0000
  C   C27       1.0  0.8719094397195405  0.5727857267241034  0.10396055625901002  1.0000
  C   C28       1.0  0.10792218971664047  0.4805113551789384  0.12229676258042121  1.0000
  N   N5        1.0  0.1496638829742949  0.46418941924353274  0.01683413069872297  1.0000
  C   C29       1.0  0.2190326866844048  0.4370655686230054  0.06813815495399056  1.0000
  C   C30       1.0  0.21706078676367113  0.4378372908256989  0.20145889146274  1.0000
  O   O1        1.0  0.14783747388417878  0.46490449890274177  0.23181028128494474  1.0000
  H   H17       1.0  0.8806866741467261  0.5693679013957684  0.5510892969978873  1.0000
  H   H18       1.0  0.017516176539731587  0.5158587697895309  0.32335021218399884  1.0000
  H   H19       1.0  0.017459317951623143  0.5158826921598396  0.906257858586164  1.0000
  H   H20       1.0  0.812252054167044  0.5961093640773578  0.09950701466432199  1.0000
  H   H21       1.0  0.8806732642979852  0.5693680138077244  0.6581406149165501  1.0000
  H   H22       1.0  0.26790980788217733  0.41795385115392536  0.011752449222198091  1.0000
  H   H23       1.0  0.263659598037848  0.41961706286066636  0.2703627731256131  1.0000
  Zn  Zn1       1.0  0.8278417357652319  0.5597292219858183  0.6028702881500618  1.0000
  Zn  Zn2       1.0  0.9924531591747064  0.5559409011375438  0.6107598071006686  1.0000
  C   C31       1.0  0.9101206238433506  0.5520888074506147  0.8440074813242813  1.0000
  C   C32       1.0  0.9101760780770288  0.563583094263439  0.3696228228578715  1.0000
  C   C33       1.0  0.9115119092765654  0.8212766725139018  0.6009632983446895  1.0000
  C   C34       1.0  0.9087847274960928  0.2943934975175728  0.6126670768338525  1.0000
  O   O2        1.0  0.972654176258284  0.5640679804595403  0.42099408909705915  1.0000
  O   O3        1.0  0.9725787815420947  0.5487275852424018  0.7986238063970688  1.0000
  O   O4        1.0  0.9737014200160582  0.7661002100045198  0.6023638648459171  1.0000
  O   O5        1.0  0.971531481666626  0.3466953673085884  0.6172539305621907  1.0000
  O   O6        1.0  0.8487633570995204  0.7689747571091126  0.5963761619893995  1.0000
  O   O7        1.0  0.8476407275994862  0.5516038653239115  0.7926360298450221  1.0000
  O   O8        1.0  0.8477161220985046  0.5669442102777889  0.41500475139351334  1.0000
  O   O9        1.0  0.8465934274507492  0.3495715868100091  0.6112646902455254  1.0000
