data_image0
_chemical_formula_structural       NC12NC2H8C10H6C7F3H5Zn2C4O8
_chemical_formula_sum              "N2 C35 H19 F3 Zn2 O8"
_cell_length_a       17.80743265337812
_cell_length_b       10.30283237001006
_cell_length_c       10.299327507215196
_cell_angle_alpha    85.55280167005586
_cell_angle_beta     91.5153373633688
_cell_angle_gamma    89.43531271068052

_space_group_name_H-M_alt    "P 1"
_space_group_IT_number       1

loop_
  _space_group_symop_operation_xyz
  'x, y, z'

loop_
  _atom_site_type_symbol
  _atom_site_label
  _atom_site_symmetry_multiplicity
  _atom_site_fract_x
  _atom_site_fract_y
  _atom_site_fract_z
  _atom_site_occupancy
  N   N1        1.0  0.7076755840188188  0.4064045657456101  0.6013527305428645  1.0000
  C   C1        1.0  0.6568682279848678  0.4359616914533555  0.5326541006902055  1.0000
  C   C2        1.0  0.5936588607263101  0.4727286099605803  0.44720165317810956  1.0000
  C   C3        1.0  0.6054085005357267  0.5267463481796593  0.32058208922912335  1.0000
  C   C4        1.0  0.5441060528235525  0.5620098789583496  0.23752560902759035  1.0000
  C   C5        1.0  0.4708997818828878  0.5435191261527543  0.28042879118549324  1.0000
  C   C6        1.0  0.4581732839074462  0.48938257126751794  0.40751649891910313  1.0000
  C   C7        1.0  0.5203330507075437  0.4541222951576571  0.49055646736524694  1.0000
  C   C8        1.0  0.380398288000067  0.4697777259498923  0.45327997276341203  1.0000
  C   C9        1.0  0.3615895719327289  0.49694238734744367  0.580326153636745  1.0000
  C   C10       1.0  0.2883533476568205  0.47849319091508713  0.6232699001154356  1.0000
  C   C11       1.0  0.2329827209034248  0.4326250504154807  0.5400054353378108  1.0000
  C   C12       1.0  0.15760964265274774  0.41362304910195524  0.5843501079366191  1.0000
  N   N2        1.0  0.0970150253366283  0.39834671802794874  0.6200001740880792  1.0000
  C   C13       1.0  0.2510998474012067  0.4052914708033417  0.4135022246435289  1.0000
  C   C14       1.0  0.3242832621432955  0.4237554751038921  0.37030258921040904  1.0000
  H   H1        1.0  0.6618802657038682  0.5415692188564014  0.28614515507308735  1.0000
  H   H2        1.0  0.5533214174423245  0.6041043948291809  0.1397467125950611  1.0000
  H   H3        1.0  0.42427202381863355  0.573152510867962  0.21483813718704492  1.0000
  H   H4        1.0  0.5118160990724442  0.41064290544761217  0.5882108831355826  1.0000
  H   H5        1.0  0.40325410595619277  0.5341034606786013  0.6459007671999792  1.0000
  H   H6        1.0  0.274892421329722  0.5003218125707221  0.7212802077481315  1.0000
  H   H7        1.0  0.20871835377863024  0.369397250442524  0.34834060036665204  1.0000
  H   H8        1.0  0.3372157487757416  0.4003917417724332  0.2725955821900474  1.0000
  C   C15       1.0  0.9023488699633657  0.0211230123415882  0.6106822074968021  1.0000
  C   C16       1.0  0.9385281439202547  0.028695745942964868  0.49083055139393816  1.0000
  C   C17       1.0  0.9565280158713945  0.9153598478618435  0.43120248854694143  1.0000
  C   C18       1.0  0.9385282457950385  0.7933931517376388  0.4908308282058571  1.0000
  C   C19       1.0  0.9023489235017446  0.7836181650694191  0.6106822366131364  1.0000
  C   C20       1.0  0.8844477727295293  0.8980788032570278  0.6699834536181648  1.0000
  C   C21       1.0  0.993615208468211  0.9242514590949309  0.3083430434528378  1.0000
  C   C22       1.0  0.02466515782283074  0.9316957233042529  0.20548268108849554  1.0000
  C   C23       1.0  0.06102433715135658  0.9404128082511608  0.08503427720780121  1.0000
  C   C24       1.0  0.09206950771092925  0.9478559465072318  0.9821895622667363  1.0000
  H   H9        1.0  0.8886484752612037  0.34557768952774204  0.6560679178687776  1.0000
  H   H10       1.0  0.9528001251636259  0.12253571176630951  0.44355145345691804  1.0000
  H   H11       1.0  0.9528003610892527  0.7063966010140453  0.443551533428868  1.0000
  H   H12       1.0  0.8565466264234064  0.8913897204635157  0.7624115308706865  1.0000
  H   H13       1.0  0.8886482630222218  0.45259408250811484  0.6560677183786492  1.0000
  H   H14       1.0  0.11932972814934062  0.954391764078432  0.8918833342437904  1.0000
  C   C25       1.0  0.9024208418039052  0.40242182847699026  0.22930408399281155  1.0000
  C   C26       1.0  0.9754268587998906  0.45296760628612254  0.22753023483351176  1.0000
  C   C27       1.0  0.011706938480836815  0.48068093514997434  0.10931287557441505  1.0000
  C   C28       1.0  0.9752379494296194  0.4528338425162286  0.9922837293624083  1.0000
  C   C29       1.0  0.9022769801476342  0.4023193603372084  0.9920603700362669  1.0000
  C   C30       1.0  0.8661799775503691  0.3778899193568639  0.11105906456044212  1.0000
  C   C31       1.0  0.09111023018164377  0.5305208494505373  0.10885356093375798  1.0000
  F   F1        1.0  0.10423299277344222  0.606064658912471  0.21237324049111295  1.0000
  F   F2        1.0  0.14073387154406025  0.4259812364738431  0.11909923872298389  1.0000
  F   F3        1.0  0.1040266073613032  0.6060513155431497  0.994719951999707  1.0000
  H   H15       1.0  0.7651595661713638  0.30485486636706205  0.4400820480958143  1.0000
  H   H16       1.0  0.004237295792775875  0.4706316370868253  0.31830664090032856  1.0000
  H   H17       1.0  0.003918810893627223  0.4704026285177536  0.9012773664992588  1.0000
  H   H18       1.0  0.8099101530595252  0.3389346819831909  0.11162128933648607  1.0000
  H   H19       1.0  0.8747173424132334  0.38075785285162533  0.6647088719954124  1.0000
  Zn  Zn1       1.0  0.8200305385143639  0.4040757777251174  0.6067414670563578  1.0000
  Zn  Zn2       1.0  0.9846600663480456  0.40066491439787644  0.6146220308814119  1.0000
  C   C32       1.0  0.9023024761031928  0.3971666463079597  0.847883006880904  1.0000
  C   C33       1.0  0.9023899264846205  0.40757564667103474  0.37348070458196325  1.0000
  C   C34       1.0  0.9023460263402048  0.6394911178342857  0.6055067453724858  1.0000
  C   C35       1.0  0.9023463200578774  0.16524961647275438  0.61585703264155  1.0000
  O   O1        1.0  0.9648555988595096  0.4080052462680106  0.4248583284228986  1.0000
  O   O2        1.0  0.9647868061565436  0.39414730099425266  0.8024861747842447  1.0000
  O   O3        1.0  0.9648211310619496  0.5898273936307212  0.6067655884482321  1.0000
  O   O4        1.0  0.9648212177955676  0.2123251640959103  0.6205788146927869  1.0000
  O   O5        1.0  0.8398693308868648  0.5924155291924582  0.6007846805489019  1.0000
  O   O6        1.0  0.8398350059912134  0.39673699639331805  0.7965051976376654  1.0000
  O   O7        1.0  0.8399037990386897  0.4105948966336892  0.4188757898402713  1.0000
  O   O8        1.0  0.839869417953307  0.2149148051625951  0.6145963734802031  1.0000
