data_image0
_chemical_formula_structural       NC12NC2H8C9H10C12H16Zn2C4O8
_chemical_formula_sum              "N2 C39 H34 Zn2 O8"
_cell_length_a       17.80743265337812
_cell_length_b       10.297183801781406
_cell_length_c       10.298981074953016
_cell_angle_alpha    85.5380481533397
_cell_angle_beta     91.51542336112495
_cell_angle_gamma    89.4353606467078

_space_group_name_H-M_alt    "P 1"
_space_group_IT_number       1

loop_
  _space_group_symop_operation_xyz
  'x, y, z'

loop_
  _atom_site_type_symbol
  _atom_site_label
  _atom_site_symmetry_multiplicity
  _atom_site_fract_x
  _atom_site_fract_y
  _atom_site_fract_z
  _atom_site_occupancy
  N   N1        1.0  0.7076667051843144  0.4069341786876588  0.60066991581881  1.0000
  C   C1        1.0  0.6568591852152414  0.43649419708715853  0.5319562564138642  1.0000
  C   C2        1.0  0.593649614031184  0.47326471466009257  0.4464851132931602  1.0000
  C   C3        1.0  0.6053989548533603  0.5272875156483714  0.31983806331236586  1.0000
  C   C4        1.0  0.5440963121873399  0.5625542681692872  0.23676363297598302  1.0000
  C   C5        1.0  0.47089014384627437  0.5440616901519106  0.27967621624413863  1.0000
  C   C6        1.0  0.45816394540637756  0.4899201011060381  0.40679147374563285  1.0000
  C   C7        1.0  0.5203239071474283  0.4546566016973006  0.4898493905169874  1.0000
  C   C8        1.0  0.3803890581216101  0.47031337830809017  0.4525649198890327  1.0000
  C   C9        1.0  0.36158008172719724  0.497520558281084  0.5796005754645981  1.0000
  C   C10       1.0  0.2883439597413174  0.47906956944927814  0.6225537042934208  1.0000
  C   C11       1.0  0.2329736968729816  0.4331571448458771  0.5393092807333146  1.0000
  C   C12       1.0  0.15760072391147933  0.4141533213557864  0.5836636187852668  1.0000
  N   N2        1.0  0.09700619124081451  0.3988755253600762  0.6193214553098232  1.0000
  C   C13       1.0  0.2510910845480252  0.4057810616399198  0.41281668382956194  1.0000
  C   C14       1.0  0.3242743970456572  0.42424681337167747  0.3696076546880609  1.0000
  H   H1        1.0  0.6618706377993335  0.5421118402273788  0.28539359211562365  1.0000
  H   H2        1.0  0.5533114432992531  0.6046529163071697  0.13896333286930918  1.0000
  H   H3        1.0  0.4242622195296548  0.5736986635605812  0.21407055070786507  1.0000
  H   H4        1.0  0.5118071986279955  0.41117224347564973  0.5875258563628256  1.0000
  H   H5        1.0  0.40324432202752564  0.5347171145022145  0.6451589196317966  1.0000
  H   H6        1.0  0.27488282657644625  0.5009315025532775  0.7205554836183883  1.0000
  H   H7        1.0  0.20870987568617913  0.369852186058675  0.3476707428054091  1.0000
  H   H8        1.0  0.3372071009126459  0.4008489341149517  0.27190990013003247  1.0000
  C   C15       1.0  0.9023426390180301  0.021429189827303796  0.6101799860855677  1.0000
  C   C16       1.0  0.9001784190339044  0.03132423362663528  0.47340861055058014  1.0000
  C   C17       1.0  0.8990694520766995  0.9197772701311383  0.40333662692118555  1.0000
  C   C18       1.0  0.9001697181950221  0.796153283155989  0.47287848997400306  1.0000
  C   C19       1.0  0.9023374591583185  0.7843703982040027  0.6098228988493004  1.0000
  C   C20       1.0  0.9034090558288361  0.897484723916828  0.6775796709351372  1.0000
  C   C21       1.0  0.8967284874864139  0.9399116578152398  0.25540871668907017  1.0000
  C   C22       1.0  0.8527522577075478  0.8420998222589682  0.18100400386348636  1.0000
  C   C23       1.0  0.9383415753716973  0.8406361961544371  0.18097840432210766  1.0000
  H   H9        1.0  0.9031837158911022  0.345154618404347  0.6628827257776515  1.0000
  H   H10       1.0  0.8993430684762835  0.12656662853506195  0.4206073212595294  1.0000
  H   H11       1.0  0.8993557425634341  0.7085667718162397  0.4215433949578833  1.0000
  H   H12       1.0  0.9050784204483542  0.8891230547651289  0.7831016412226626  1.0000
  H   H13       1.0  0.9064217318452544  0.5548996029472849  0.868471848713164  1.0000
  H   H14       1.0  0.8959767500328254  0.04063939760973434  0.20786211889167094  1.0000
  H   H15       1.0  0.8276719985184331  0.7589856396254462  0.2389070055903857  1.0000
  H   H16       1.0  0.8262655290764935  0.8835144753417945  0.0878463609872071  1.0000
  H   H17       1.0  0.9652522303718848  0.7566337390241124  0.23886653369120836  1.0000
  H   H18       1.0  0.9618780365219513  0.8811930567727714  0.08780460133660517  1.0000
  C   C24       1.0  0.9024122049226548  0.402871135109629  0.2286167028397459  1.0000
  C   C25       1.0  0.9754387466333574  0.34949085185778617  0.23493869744203977  1.0000
  C   C26       1.0  0.012459766581973453  0.32275503304474973  0.12088878332459885  1.0000
  C   C27       1.0  0.9752629596072993  0.3495491613318733  0.9996402127872601  1.0000
  C   C28       1.0  0.902267856768504  0.40292840971708355  0.9913861638446329  1.0000
  C   C29       1.0  0.866294781671894  0.42936435256870653  0.10642722637765001  1.0000
  C   C30       1.0  0.09136271381175765  0.2647630167468682  0.1275462156894005  1.0000
  C   C31       1.0  0.09294799062652781  0.12459834535586523  0.19480862384882047  1.0000
  C   C32       1.0  0.1700768971679234  0.08440743622740188  0.2579108502946452  1.0000
  C   C33       1.0  0.23471718646998818  0.15250687782255867  0.18583063715410786  1.0000
  C   C34       1.0  0.22892235544307749  0.302001321545023  0.18698468663299228  1.0000
  C   C35       1.0  0.14752878147983006  0.353289737892053  0.1937396695444864  1.0000
  H   H19       1.0  0.7644361663299934  0.5031180275835863  0.4240335561651747  1.0000
  H   H20       1.0  0.00357609743660503  0.32812423719163686  0.3287531979515781  1.0000
  H   H21       1.0  0.0033887366715763534  0.3286999773617132  0.9115045183472583  1.0000
  H   H22       1.0  0.8099918858305749  0.47053199308428506  0.10076271127308067  1.0000
  H   H23       1.0  0.8740746208819973  0.4230991070268528  0.6607512822090329  1.0000
  H   H24       1.0  0.11087503820771083  0.257913785228129  0.026369142642794774  1.0000
  H   H25       1.0  0.07770931140289172  0.05560672302078595  0.12076342347770996  1.0000
  H   H26       1.0  0.0503370223135271  0.11341731927704246  0.27170527405255673  1.0000
  H   H27       1.0  0.17201084001378142  0.10986511356782636  0.3609530497751616  1.0000
  H   H28       1.0  0.17762174815578513  0.9770802645205522  0.2585829768065615  1.0000
  H   H29       1.0  0.23366482203218086  0.12514734168420594  0.08341902232486142  1.0000
  H   H30       1.0  0.2892231266519121  0.11782013847106576  0.231678398464233  1.0000
  H   H31       1.0  0.25497009845494545  0.3468714118817571  0.0976235844580089  1.0000
  H   H32       1.0  0.26186826812038566  0.33373519720441247  0.2718707837783869  1.0000
  H   H33       1.0  0.1333917118129908  0.35830547306928606  0.2977519137654343  1.0000
  H   H34       1.0  0.14372882453693658  0.45392065647929525  0.14608128700803613  1.0000
  Zn  Zn1       1.0  0.8200216726100394  0.40460515772640515  0.6060598360869582  1.0000
  Zn  Zn2       1.0  0.9846512193888837  0.4011939506948343  0.613942133491826  1.0000
  C   C36       1.0  0.9022935187351901  0.39774252447441416  0.8472087801479606  1.0000
  C   C37       1.0  0.902381170977989  0.4080581857840837  0.3727934022099122  1.0000
  C   C38       1.0  0.9023355399434739  0.640157957688732  0.6047148451933124  1.0000
  C   C39       1.0  0.9023390935906695  0.16564119299993174  0.615287404446824  1.0000
  O   O1        1.0  0.964846810769713  0.4084988047576019  0.42417171302750645  1.0000
  O   O2        1.0  0.9647778957576066  0.39471189826923925  0.8018125772737981  1.0000
  O   O3        1.0  0.964810985952103  0.5904654439038095  0.6059969681563324  1.0000
  O   O4        1.0  0.9648136644166662  0.21274526957254936  0.6199872220722176  1.0000
  O   O5        1.0  0.8398591714022736  0.5930538400141814  0.6000147448098936  1.0000
  O   O6        1.0  0.8398260812068297  0.3973018551149359  0.7958302839484224  1.0000
  O   O7        1.0  0.8398949965646568  0.4110887162163108  0.41818785826017946  1.0000
  O   O8        1.0  0.8398618501901771  0.21533517174723182  0.6140034646809727  1.0000
