data_image0
_chemical_formula_structural       NC12NC2H8C12H10C10H6Zn2C4O8
_chemical_formula_sum              "N2 C40 H24 Zn2 O8"
_cell_length_a       17.80743265337812
_cell_length_b       10.299137764757564
_cell_length_c       10.302835742178797
_cell_angle_alpha    85.54034283027615
_cell_angle_beta     91.5341157365678
_cell_angle_gamma    89.45463381285008

_space_group_name_H-M_alt    "P 1"
_space_group_IT_number       1

loop_
  _space_group_symop_operation_xyz
  'x, y, z'

loop_
  _atom_site_type_symbol
  _atom_site_label
  _atom_site_symmetry_multiplicity
  _atom_site_fract_x
  _atom_site_fract_y
  _atom_site_fract_z
  _atom_site_occupancy
  N   N1        1.0  0.7076782549937103  0.406754414030438  0.6013428270740395  1.0000
  C   C1        1.0  0.6568635374198155  0.43631360543109743  0.5326574428979594  1.0000
  C   C2        1.0  0.5936450136308327  0.4730830940026922  0.4472214707929225  1.0000
  C   C3        1.0  0.6053809981568895  0.5271044637734716  0.32062647981331627  1.0000
  C   C4        1.0  0.5440695610744548  0.5623703118172532  0.2375861772398562  1.0000
  C   C5        1.0  0.4708678814542888  0.5438782567398472  0.2804810984011443  1.0000
  C   C6        1.0  0.45815510458633607  0.4897380878220614  0.40754411420422443  1.0000
  C   C7        1.0  0.5203238582575687  0.4544754934711295  0.4905679095433777  1.0000
  C   C8        1.0  0.3803850285914596  0.47013189880128725  0.4532987350755182  1.0000
  C   C9        1.0  0.3616054389863025  0.49732403985331564  0.5802919900995285  1.0000
  C   C10       1.0  0.28837382156462976  0.4788735625014582  0.6232274472577988  1.0000
  C   C11       1.0  0.2329787851402735  0.432976676872995  0.5400074205254972  1.0000
  C   C12       1.0  0.1576104733294824  0.41397337161643843  0.5843435163438313  1.0000
  N   N2        1.0  0.0970196878975908  0.3986959922507569  0.6199866873639708  1.0000
  C   C13       1.0  0.2510668556231553  0.4056156260254318  0.4135570085143647  1.0000
  C   C14       1.0  0.3242456180261454  0.4240808824908189  0.3703657448465927  1.0000
  H   H1        1.0  0.6618490744192213  0.5419283724598274  0.286196183092569  1.0000
  H   H2        1.0  0.5532744528900073  0.6044677776619458  0.1398261244408816  1.0000
  H   H3        1.0  0.4242333628542306  0.5735141543642421  0.21490259973340842  1.0000
  H   H4        1.0  0.511817093387103  0.4109926073028807  0.5882040054643227  1.0000
  H   H5        1.0  0.4032893934997877  0.5345081482774965  0.6458312460670743  1.0000
  H   H6        1.0  0.2749355303460796  0.5007237171344145  0.721196621931327  1.0000
  H   H7        1.0  0.2086662596228345  0.3696989107172346  0.3484301602998714  1.0000
  H   H8        1.0  0.3371552357613814  0.40069506976859093  0.27270030034165993  1.0000
  C   C15       1.0  0.902280259441276  0.021326737935154494  0.6108029767770085  1.0000
  C   C16       1.0  0.9022469505717614  0.031180103637908685  0.4740987890845296  1.0000
  C   C17       1.0  0.9023043214664473  0.9190428830385547  0.4046478734734731  1.0000
  C   C18       1.0  0.9023954063289714  0.7959218399924124  0.4737488894660846  1.0000
  C   C19       1.0  0.9024248657538552  0.7841135480784839  0.610538087401501  1.0000
  C   C20       1.0  0.9023683704309483  0.8973334856625594  0.6782230597146255  1.0000
  C   C21       1.0  0.9022681942627773  0.9305117024207356  0.2600283064825979  1.0000
  C   C22       1.0  0.9475775852800595  0.8472590551323631  0.19235640300651724  1.0000
  C   C23       1.0  0.9474502093786973  0.8583068924138584  0.05622262280787993  1.0000
  C   C24       1.0  0.9022019069197005  0.9522305959101862  0.9862308688122807  1.0000
  C   C25       1.0  0.8569865937990733  0.035366956993048815  0.05223069983123052  1.0000
  C   C26       1.0  0.8569250712910402  0.024817926273219548  0.18835631180131762  1.0000
  H   H9        1.0  0.9022547320413662  0.34501321248955596  0.663386611333779  1.0000
  H   H10       1.0  0.9032159364429294  0.12628655204773387  0.421361848860091  1.0000
  H   H11       1.0  0.9014048836000706  0.7091732848958414  0.42067172149708987  1.0000
  H   H12       1.0  0.9023920056516596  0.889017871657275  0.7836660381145846  1.0000
  H   H13       1.0  0.9020027677913354  0.5545443376041611  0.8686976483318496  1.0000
  H   H14       1.0  0.9837875697166406  0.7748454738070001  0.24469492581196706  1.0000
  H   H15       1.0  0.9826236690610155  0.7941699409439965  0.004971219272878802  1.0000
  H   H16       1.0  0.9021764797377887  0.9605894128393365  0.8808575076008132  1.0000
  H   H17       1.0  0.8217876617424318  0.10788137564560119  0.9978726211560667  1.0000
  H   H18       1.0  0.8207399094302812  0.08918328993988567  0.23749253015110017  1.0000
  C   C27       1.0  0.9023525435500557  0.40272010999346186  0.2294229153239491  1.0000
  C   C28       1.0  0.8657900425548863  0.5246812187792782  0.21714997935249025  1.0000
  C   C29       1.0  0.8475997126854042  0.5853590172238479  0.09394052939328201  1.0000
  C   C30       1.0  0.8657902329421532  0.5246812746266734  0.9818474352607454  1.0000
  C   C31       1.0  0.9023525793567226  0.4027201910730003  0.9919181110061248  1.0000
  C   C32       1.0  0.920443272662418  0.34237504001939145  0.1161981889921555  1.0000
  C   C33       1.0  0.8101195957165698  0.7103808671450689  0.08248846411407462  1.0000
  C   C34       1.0  0.7787404399752915  0.8150513691944006  0.07290047432867164  1.0000
  C   C35       1.0  0.7419957688030347  0.9376194979563695  0.06167311460283531  1.0000
  C   C36       1.0  0.7106213291922694  0.04227394199639578  0.05208672510924006  1.0000
  H   H19       1.0  0.9161981285703257  0.35653575276377714  0.561392696590084  1.0000
  H   H20       1.0  0.8513668332617604  0.5727925880287037  0.3031611207799507  1.0000
  H   H21       1.0  0.8513670524717883  0.5727927256326812  0.8870222535868955  1.0000
  H   H22       1.0  0.948639725631022  0.2483200431295005  0.12481378211244576  1.0000
  H   H23       1.0  0.916197915921872  0.3565354979016093  0.6684093330830851  1.0000
  H   H24       1.0  0.6830719493409766  0.13416926792035522  0.04366909798398955  1.0000
  Zn  Zn1       1.0  0.8200337849736445  0.40442546002883795  0.6067305281793365  1.0000
  Zn  Zn2       1.0  0.9846641534158418  0.401014351975161  0.6146095796195188  1.0000
  C   C37       1.0  0.9023499217006107  0.3975461210574194  0.8477919266481659  1.0000
  C   C38       1.0  0.9023498147580686  0.40789529244365896  0.37354839404648055  1.0000
  C   C39       1.0  0.9023936701295233  0.639930684936193  0.6054144340021943  1.0000
  C   C40       1.0  0.9023060098564897  0.16550916930566073  0.6159259537624011  1.0000
  O   O1        1.0  0.9648252647217659  0.40833196704116403  0.4249082822355772  1.0000
  O   O2        1.0  0.9648251119113407  0.3945195145765652  0.8024116828064747  1.0000
  O   O3        1.0  0.9648595971097321  0.5902481327304296  0.6066901018568758  1.0000
  O   O4        1.0  0.9647907233479373  0.2126033593422112  0.620629763149668  1.0000
  O   O5        1.0  0.8399071588612842  0.5928364538272455  0.6007103419536246  1.0000
  O   O6        1.0  0.8398726739552944  0.3971093960980625  0.7964318531377115  1.0000
  O   O7        1.0  0.8398728268070135  0.4109218033020241  0.4189268916808866  1.0000
  O   O8        1.0  0.8398382854283571  0.21519318631361672  0.6146484699349233  1.0000
