data_image0
_chemical_formula_structural       NC12NC2H8C7NC2OH7C7NC2OH7Zn2C4O8
_chemical_formula_sum              "N4 C36 H22 O10 Zn2"
_cell_length_a       17.80743265337812
_cell_length_b       10.300333997791364
_cell_length_c       10.300337369960102
_cell_angle_alpha    85.56022088653347
_cell_angle_beta     91.53453705670806
_cell_angle_gamma    89.43519355652523

_space_group_name_H-M_alt    "P 1"
_space_group_IT_number       1

loop_
  _space_group_symop_operation_xyz
  'x, y, z'

loop_
  _atom_site_type_symbol
  _atom_site_label
  _atom_site_symmetry_multiplicity
  _atom_site_fract_x
  _atom_site_fract_y
  _atom_site_fract_z
  _atom_site_occupancy
  N   N1        1.0  0.7074038423100382  0.40656028516038534  0.6014815252429009  1.0000
  C   C1        1.0  0.6565831910792583  0.43611544980006856  0.5327895122057833  1.0000
  C   C2        1.0  0.5933572862674126  0.4728799293684127  0.4473452951676904  1.0000
  C   C3        1.0  0.6050824220896691  0.5268939413905951  0.320737930158733  1.0000
  C   C4        1.0  0.5437639011380185  0.5621549867304227  0.23768945313541434  1.0000
  C   C5        1.0  0.47056593326177415  0.5436654508697274  0.28058850324146234  1.0000
  C   C6        1.0  0.4578640297639569  0.489532655628498  0.40766396633752744  1.0000
  C   C7        1.0  0.5200398666131058  0.45427486355019586  0.49069593322412497  1.0000
  C   C8        1.0  0.3800978903173367  0.4699291372388672  0.45342303177945964  1.0000
  C   C9        1.0  0.3613136533597813  0.49711732068467085  0.5804563741739732  1.0000
  C   C10       1.0  0.2880857399207588  0.47866935670284505  0.6233959842597814  1.0000
  C   C11       1.0  0.2326991069258327  0.4327789763598011  0.5401401400762866  1.0000
  C   C12       1.0  0.15733461056633843  0.4137782596288031  0.5844805409825637  1.0000
  N   N2        1.0  0.09674689250039162  0.39850296126367146  0.6201271729873077  1.0000
  C   C13       1.0  0.2507918593090417  0.40542190592828264  0.41364971508800186  1.0000
  C   C14       1.0  0.3239669138180596  0.4238846473052966  0.37045424139494343  1.0000
  H   H1        1.0  0.6615475226937809  0.5417158306393732  0.2863043128010325  1.0000
  H   H2        1.0  0.5529603426426473  0.6042467176823303  0.13991997423983915  1.0000
  H   H3        1.0  0.4239254796186482  0.5732973069081786  0.21500415631310021  1.0000
  H   H4        1.0  0.5115418159008818  0.41079790545928674  0.588340954026749  1.0000
  H   H5        1.0  0.40299079166771806  0.5342961612537911  0.6460241909879882  1.0000
  H   H6        1.0  0.2746436969534169  0.5005163366431276  0.7213963811782833  1.0000
  H   H7        1.0  0.2083978394200625  0.36951028135017916  0.34849483715801943  1.0000
  H   H8        1.0  0.336880577643039  0.4005022228220727  0.27275712620690906  1.0000
  C   C15       1.0  0.9020794372291332  0.021186294998854605  0.6108129078462001  1.0000
  C   C16       1.0  0.8822535172885982  0.030828931556507344  0.47750319584565104  1.0000
  C   C17       1.0  0.8722507198088885  0.9186055023353433  0.41024348271322286  1.0000
  C   C18       1.0  0.8822514580200622  0.7955373558542529  0.4774916910325935  1.0000
  C   C19       1.0  0.90207851125746  0.7838667845354462  0.610807323499011  1.0000
  C   C20       1.0  0.9118820676293575  0.89725643023507  0.6767242515202248  1.0000
  C   C21       1.0  0.8513839563020613  0.9304980907848076  0.2699249541961435  1.0000
  N   N3        1.0  0.8406851090595503  0.8276715331957185  0.19797693968583152  1.0000
  C   C22       1.0  0.8229046828187112  0.883356435056485  0.07840958116980268  1.0000
  C   C23       1.0  0.8234097920381332  0.01655265265190642  0.08180872833774044  1.0000
  O   O1        1.0  0.8411528055920613  0.04253243777238791  0.20112528575413768  1.0000
  H   H9        1.0  0.9096257281258268  0.3449403836405749  0.6616006040350624  1.0000
  H   H10       1.0  0.8745575204788668  0.12584208540899766  0.4257521622951774  1.0000
  H   H11       1.0  0.874571285147257  0.7087459522173339  0.42585082203945546  1.0000
  H   H12       1.0  0.927174656198238  0.8890351424629519  0.779551426767322  1.0000
  H   H13       1.0  0.9096315810759221  0.4519902219070134  0.661621893120623  1.0000
  H   H14       1.0  0.8103768072855309  0.8300574324313259  0.9941625788487092  1.0000
  H   H15       1.0  0.8114655906909299  0.08839959943534059  0.0014889874550987336  1.0000
  C   C24       1.0  0.9020773144124686  0.40252703855619587  0.22946991976019482  1.0000
  C   C25       1.0  0.9795765000984255  0.3753036945931061  0.23415042407883502  1.0000
  C   C26       1.0  0.01867764128850702  0.36156831214603913  0.11942341098223919  1.0000
  C   C27       1.0  0.9795833255647858  0.37530194603936584  0.9988584595735182  1.0000
  C   C28       1.0  0.9020806002339793  0.4025260479332531  0.9921502696122735  1.0000
  C   C29       1.0  0.8637598900406908  0.415986481868883  0.10799349038092254  1.0000
  C   C30       1.0  0.10025076910662323  0.3329114256099188  0.12609308693708754  1.0000
  N   N4        1.0  0.1420770361402861  0.31821670893633724  0.020588602378796894  1.0000
  C   C31       1.0  0.2115863848492201  0.29379697701589635  0.07182307570870528  1.0000
  C   C32       1.0  0.20961048617117228  0.2944917621911465  0.2051457910660357  1.0000
  O   O2        1.0  0.1402469217919724  0.318860498559866  0.23556658657089935  1.0000
  H   H16       1.0  0.8725548342784588  0.4129093974446798  0.5551134671386952  1.0000
  H   H17       1.0  0.009661599695210299  0.36473487136426486  0.32723717431291943  1.0000
  H   H18       1.0  0.00960461715090033  0.3647564087882098  0.9101448820567808  1.0000
  H   H19       1.0  0.8039816506820641  0.4369848636821567  0.10359975521207532  1.0000
  H   H20       1.0  0.8725414238472438  0.4129094986496993  0.6621647853456039  1.0000
  H   H21       1.0  0.26056253536059604  0.2765906067381845  0.0153883637479022  1.0000
  H   H22       1.0  0.25630370741514796  0.27808800416061485  0.2740029524555616  1.0000
  Zn  Zn1       1.0  0.8197598396975441  0.4042316484572288  0.6068697428077481  1.0000
  Zn  Zn2       1.0  0.984390892677931  0.40082100515153773  0.6147495477533551  1.0000
  C   C33       1.0  0.9020783173629559  0.3973529468554178  0.8479873444457777  1.0000
  C   C34       1.0  0.9020742127770107  0.40770130802702065  0.3736321596074075  1.0000
  C   C35       1.0  0.9020747784141833  0.6397040640712872  0.605633412469722  1.0000
  C   C36       1.0  0.9020776955509524  0.16534863176907622  0.615986158139475  1.0000
  O   O3        1.0  0.9645497984709789  0.4081378533791673  0.425004669190842  1.0000
  O   O4        1.0  0.9645538915774416  0.39432682248989437  0.8025950506790729  1.0000
  O   O5        1.0  0.9645501916225775  0.5900284320362976  0.6068924955923816  1.0000
  O   O6        1.0  0.9645534422479842  0.2124362542863525  0.6207071242212863  1.0000
  O   O7        1.0  0.8395972339469921  0.5926164004877126  0.6009121636439958  1.0000
  O   O8        1.0  0.8396009338961887  0.3969163511486833  0.7966146494788544  1.0000
  O   O9        1.0  0.8395968408329996  0.41072733678570317  0.4190227067102392  1.0000
  O   O10       1.0  0.8396004846073649  0.2150257284045991  0.6147252591011099  1.0000
