data_image0
_chemical_formula_structural       NC12NC2H8C7N4H6C10H6Zn2C4O8
_chemical_formula_sum              "N6 C35 H20 Zn2 O8"
_cell_length_a       17.80743265337812
_cell_length_b       9.274187458527196
_cell_length_c       10.302835742178797
_cell_angle_alpha    85.91671249161642
_cell_angle_beta     91.5341157365678
_cell_angle_gamma    89.89930755814211

_space_group_name_H-M_alt    "P 1"
_space_group_IT_number       1

loop_
  _space_group_symop_operation_xyz
  'x, y, z'

loop_
  _atom_site_type_symbol
  _atom_site_label
  _atom_site_symmetry_multiplicity
  _atom_site_fract_x
  _atom_site_fract_y
  _atom_site_fract_z
  _atom_site_occupancy
  N   N1        1.0  0.7141415693314493  0.5613624032586719  0.6109089480422227  1.0000
  C   C1        1.0  0.6634626610670447  0.5941702691259534  0.5424245703800301  1.0000
  C   C2        1.0  0.6004130742014551  0.6349808729315267  0.4572386357883689  1.0000
  C   C3        1.0  0.6123972591883039  0.6949394093266394  0.3310109974560622  1.0000
  C   C4        1.0  0.551247850572971  0.7340811164401335  0.24821050743628414  1.0000
  C   C5        1.0  0.47796120945311193  0.7135567098565223  0.2909796801129354  1.0000
  C   C6        1.0  0.46499968630327526  0.6534663178085498  0.4176745354183904  1.0000
  C   C7        1.0  0.5270064264564541  0.6143282219818851  0.5004585403294146  1.0000
  C   C8        1.0  0.387139529935206  0.6317053294633892  0.4632958315429996  1.0000
  C   C9        1.0  0.3684848742583753  0.6618859965928434  0.5904739968172237  1.0000
  C   C10       1.0  0.2951684863653131  0.64140773729467  0.6332839882250345  1.0000
  C   C11       1.0  0.23956257731387903  0.5904665986479958  0.5497518564404185  1.0000
  C   C12       1.0  0.1641069550712854  0.5693747534266071  0.5939587272035003  1.0000
  N   N2        1.0  0.1034459779242569  0.5524183283932187  0.6294980099702023  1.0000
  C   C13       1.0  0.2575249378146383  0.5600984578545811  0.4231153855695349  1.0000
  C   C14       1.0  0.3307885385914572  0.580593120550525  0.38004968815220064  1.0000
  H   H1        1.0  0.6689334437008024  0.7113925254223643  0.29668150532657855  1.0000
  H   H2        1.0  0.5606461586322281  0.780805263730384  0.15073672311936126  1.0000
  H   H3        1.0  0.43146285258826284  0.7464497122711939  0.2256027095718205  1.0000
  H   H4        1.0  0.5182998800471398  0.5660663910815191  0.5977989467220506  1.0000
  H   H5        1.0  0.4103396706606204  0.7031567886466399  0.6562661097694236  1.0000
  H   H6        1.0  0.28183058538994443  0.6656593121317746  0.7314017469160055  1.0000
  H   H7        1.0  0.21495932294627582  0.520234350536734  0.3577442988156123  1.0000
  H   H8        1.0  0.3435907105229624  0.5546371126006222  0.28222521694636704  1.0000
  C   C15       1.0  0.9069727314768886  0.13357466957290032  0.6177481372298093  1.0000
  C   C16       1.0  0.9458639678654273  0.21435479306141803  0.5207979384814649  1.0000
  C   C17       1.0  0.9896928830569178  0.14628119312364363  0.4329671729469826  1.0000
  C   C18       1.0  0.9959953138619076  0.9952605128466087  0.43965153400017454  1.0000
  C   C19       1.0  0.9561043438257685  0.9133052683928443  0.5346847710040727  1.0000
  C   C20       1.0  0.9106219295131287  0.9801947871572896  0.6226702496141092  1.0000
  C   C21       1.0  0.04354689048509708  0.9251413414014145  0.3460522367657979  1.0000
  N   N3        1.0  0.07966022227066039  0.9970449143927785  0.24813757802897163  1.0000
  N   N4        1.0  0.11548212691879023  0.8961465712450377  0.18880566412839328  1.0000
  N   N5        1.0  0.10230999329288504  0.7672602032282035  0.24728799586066752  1.0000
  N   N6        1.0  0.05760070843896181  0.7825298908457571  0.3456395233763303  1.0000
  H   H9        1.0  0.8085845109119081  0.4053232867493015  0.7433201267983116  1.0000
  H   H10       1.0  0.9438908414559968  0.331409580247056  0.5147403044835466  1.0000
  H   H11       1.0  0.019459840571929732  0.21249201899963  0.36048133355816847  1.0000
  H   H12       1.0  0.9584767015381196  0.7965773846446221  0.5387070325430083  1.0000
  H   H13       1.0  0.862663723975245  0.6847496900997855  0.8197134766492089  1.0000
  H   H14       1.0  0.03881691504630491  0.6977326386093042  0.40832110006770583  1.0000
  C   C22       1.0  0.9087973223318618  0.5568847129213785  0.23896160247706488  1.0000
  C   C23       1.0  0.8727951700195898  0.6922498399248429  0.22751801860034426  1.0000
  C   C24       1.0  0.8548836234834014  0.7595963733772761  0.10472118590696056  1.0000
  C   C25       1.0  0.8727953606634468  0.6922499019100923  0.9922154748883694  1.0000
  C   C26       1.0  0.9087973585110477  0.5568848029118849  0.0014567987105928992  1.0000
  C   C27       1.0  0.9266107968274373  0.4899074761415916  0.12532652147821022  1.0000
  C   C28       1.0  0.8179779177316687  0.8983586293232657  0.0941192861776774  1.0000
  C   C29       1.0  0.7870796692119258  0.014532842107004562  0.08524307001417841  1.0000
  C   C30       1.0  0.7508981356677269  0.15057170303256662  0.07484919020131575  1.0000
  C   C31       1.0  0.7200045295001879  0.26672809296695066  0.06597446513298122  1.0000
  H   H15       1.0  0.9224307139406275  0.5056245083839737  0.570617323844975  1.0000
  H   H16       1.0  0.8585930077689161  0.7456488428823862  0.3138563238693357  1.0000
  H   H17       1.0  0.8585932276111636  0.7456489956095964  0.8977174576120066  1.0000
  H   H18       1.0  0.9543751153709622  0.385515455389553  0.13330252785262875  1.0000
  H   H19       1.0  0.922430500121213  0.5056242255114245  0.6776339586048796  1.0000
  H   H20       1.0  0.6928773614946099  0.3687230861952191  0.058181738697881125  1.0000
  Zn  Zn1       1.0  0.8264863989633765  0.5587774878102116  0.6162808119441765  1.0000
  Zn  Zn2       1.0  0.9911010951152499  0.5549914852106501  0.6241366673865705  1.0000
  C   C32       1.0  0.9087709286594603  0.5511420817136556  0.857295429974199  1.0000
  C   C33       1.0  0.9088183708464161  0.5626286688152797  0.3831222731427357  1.0000
  C   C34       1.0  0.9099283097248444  0.8201656876793082  0.616566185263872  1.0000
  C   C35       1.0  0.9076609261443701  0.2936033322215186  0.6238515743198378  1.0000
  O   O1        1.0  0.9712958271057105  0.5631133357139244  0.4344851307783699  1.0000
  O   O2        1.0  0.9712322131671995  0.5477828389620187  0.811894604797607  1.0000
  O   O3        1.0  0.972165970883525  0.7650228224155946  0.6175040050196472  1.0000
  O   O4        1.0  0.970362013261983  0.34587336386429723  0.6288756305919163  1.0000
  O   O5        1.0  0.8472254246417336  0.7678956104501107  0.611541846051193  1.0000
  O   O6        1.0  0.8462916743871601  0.5506573589181889  0.8059323866747401  1.0000
  O   O7        1.0  0.8463552881590155  0.5659878054351297  0.42852135146179804  1.0000
  O   O8        1.0  0.8454214742677801  0.3487478232751  0.62291194855212  1.0000
