data_image0
_chemical_formula_structural       NC12NC2H8C12H10C7N4H6Zn2C4O8
_chemical_formula_sum              "N6 C37 H24 Zn2 O8"
_cell_length_a       17.80743265337812
_cell_length_b       10.299137764757564
_cell_length_c       9.274190830515497
_cell_angle_alpha    85.14382925186379
_cell_angle_beta     91.08905223573423
_cell_angle_gamma    89.45463381285008

_space_group_name_H-M_alt    "P 1"
_space_group_IT_number       1

loop_
  _space_group_symop_operation_xyz
  'x, y, z'

loop_
  _atom_site_type_symbol
  _atom_site_label
  _atom_site_symmetry_multiplicity
  _atom_site_fract_x
  _atom_site_fract_y
  _atom_site_fract_z
  _atom_site_occupancy
  N   N1        1.0  0.7139038046128849  0.4163478900448201  0.44561951486164797  1.0000
  C   C1        1.0  0.6633948118982173  0.4463781987416884  0.369286856048493  1.0000
  C   C2        1.0  0.600556571350831  0.48373369792762166  0.27433863689977955  1.0000
  C   C3        1.0  0.6128560416353268  0.5386233905676592  0.13364884721864345  1.0000
  C   C4        1.0  0.5519142244526573  0.5744588171803615  0.04136302600475372  1.0000
  C   C5        1.0  0.4785216156575157  0.5556725431869374  0.08903377024093495  1.0000
  C   C6        1.0  0.46524326981029035  0.5006608411886955  0.23024369356614804  1.0000
  C   C7        1.0  0.5270424770569513  0.46482878149298346  0.32251116966776383  1.0000
  C   C8        1.0  0.38726953585830004  0.4807408183948043  0.2810925299814797  1.0000
  C   C9        1.0  0.3679246877854095  0.507061904859873  0.42222492552096136  1.0000
  C   C10       1.0  0.29450196075937124  0.4883169305530881  0.4699407189399407  1.0000
  C   C11       1.0  0.23947734420327138  0.44299085623266166  0.37745516348765484  1.0000
  C   C12       1.0  0.1639116884187172  0.4236834469540198  0.4267275394931873  1.0000
  N   N2        1.0  0.10316225200782521  0.4081615888748429  0.46633914020178024  1.0000
  C   C13       1.0  0.258128256910523  0.41649713657827414  0.23692604986889276  1.0000
  C   C14       1.0  0.3314992675357962  0.4352586445912514  0.1889259690247762  1.0000
  H   H1        1.0  0.6694773702634184  0.5536834587877109  0.09538515947857085  1.0000
  H   H2        1.0  0.5615542551079871  0.6172268252707487  0.9327185910150617  1.0000
  H   H3        1.0  0.4321789928881942  0.585758247787771  0.016153910510507963  1.0000
  H   H4        1.0  0.5181011250899877  0.4206762033069287  0.43101784670222765  1.0000
  H   H5        1.0  0.4093169211409672  0.5437964754757219  0.4950611733581096  1.0000
  H   H6        1.0  0.2806275998806602  0.5094951085604835  0.5788175589586233  1.0000
  H   H7        1.0  0.2160175464039087  0.3810271303481354  0.16454812632712823  1.0000
  H   H8        1.0  0.34484360300073313  0.4125427251905809  0.08038667580165604  1.0000
  C   C15       1.0  0.9084637010782224  0.03085532619789566  0.45613293614130335  1.0000
  C   C16       1.0  0.909038874916338  0.041646354375114436  0.3042084147510087  1.0000
  C   C17       1.0  0.9094053781199294  0.929985501899407  0.22702499197201442  1.0000
  C   C18       1.0  0.9091888881084069  0.806390490712732  0.30381955810393557  1.0000
  C   C19       1.0  0.9086094864373776  0.7936439532338272  0.4558385545844936  1.0000
  C   C20       1.0  0.9082517191789569  0.9063996354085078  0.5310594179505728  1.0000
  C   C21       1.0  0.9100129656932849  0.9424462758319904  0.06630381093412607  1.0000
  C   C22       1.0  0.955623570475505  0.859657794313052  0.9910974714597174  1.0000
  C   C23       1.0  0.956102138346411  0.871639381608749  0.8398068654377959  1.0000
  C   C24       1.0  0.9111653755169009  0.9660431628726377  0.7620223885571833  1.0000
  C   C25       1.0  0.8656562911771221  0.048726827034417886  0.8353704908256394  1.0000
  C   C26       1.0  0.8649888612543454  0.03724410232677111  0.9866520191870007  1.0000
  H   H9        1.0  0.9082041191634348  0.35418112635214105  0.5145711131119348  1.0000
  H   H10       1.0  0.9102425976797811  0.1371145287181481  0.24559986340794482  1.0000
  H   H11       1.0  0.9084346166562538  0.7200059951925022  0.24483289883215464  1.0000
  H   H12       1.0  0.9078060181629337  0.8973607814958706  0.6482421780238574  1.0000
  H   H13       1.0  0.9070382969123599  0.5623040103716044  0.7427410145508297  1.0000
  H   H14       1.0  0.9916005914117895  0.7868852198241879  0.04926324649347236  1.0000
  H   H15       1.0  0.9915037226627962  0.8078539666841064  0.7828492470643806  1.0000
  H   H16       1.0  0.9116089746993189  0.9751247422005409  0.644916996692003  1.0000
  H   H17       1.0  0.8306993118466708  0.1216140911090311  0.7749603071595939  1.0000
  H   H18       1.0  0.8285849896401482  0.10127243763416471  0.04125895246187894  1.0000
  C   C27       1.0  0.9102335423456108  0.41486460767470557  0.03229088505214617  1.0000
  C   C28       1.0  0.9586948377426716  0.3286872512201664  0.11540319437550295  1.0000
  C   C29       1.0  0.001170732573115174  0.23593444921819162  0.050799551859261216  1.0000
  C   C30       1.0  0.9963381898177385  0.22653188784935052  0.9010365605120025  1.0000
  C   C31       1.0  0.9491287351288576  0.314026299745241  0.8165159192781428  1.0000
  C   C32       1.0  0.9068396262620472  0.4096347182415332  0.8796805798462475  1.0000
  C   C33       1.0  0.04146378322761679  0.12624567798936726  0.8347485362024893  1.0000
  N   N3        1.0  0.09093247614464617  0.044616278546016463  0.9085077738184113  1.0000
  N   N4        1.0  0.11859451346026684  0.9713455012936378  0.8109346735906637  1.0000
  N   N5        1.0  0.08765395601460035  0.005758175253472775  0.6822657044585898  1.0000
  N   N6        1.0  0.03936464682431051  0.10215809012831922  0.694339666788709  1.0000
  H   H19       1.0  0.8554358953313638  0.6084922790703173  0.2934379312529858  1.0000
  H   H20       1.0  0.9624536127582578  0.3308230885245169  0.23190848562987187  1.0000
  H   H21       1.0  0.03728883721802023  0.17032530546503488  0.11886294639170747  1.0000
  H   H22       1.0  0.946456555040312  0.3107937976305255  0.7003206414658534  1.0000
  H   H23       1.0  0.8031861527734788  0.5316908447913327  0.5844033821779804  1.0000
  H   H24       1.0  0.006976965739582175  0.1470108548211142  0.6090389032739147  1.0000
  Zn  Zn1       1.0  0.826235353447751  0.4139819814682699  0.45160707036841496  1.0000
  Zn  Zn2       1.0  0.9908306515191366  0.41051683051368015  0.46036335749658996  1.0000
  C   C34       1.0  0.9074785040802794  0.405449187462287  0.7195076973077834  1.0000
  C   C35       1.0  0.9095892980081829  0.41905122455647703  0.19246296715634625  1.0000
  C   C36       1.0  0.908601096657885  0.6494962335469476  0.4501444452554473  1.0000
  C   C37       1.0  0.9084666486593763  0.17500261875255507  0.4618262937460471  1.0000
  O   O1        1.0  0.9718361404628022  0.4191356185058144  0.24954114861879217  1.0000
  O   O2        1.0  0.970155685862093  0.4027338468793591  0.6690749202100326  1.0000
  O   O3        1.0  0.9710613455250575  0.599804931456507  0.4515621430710506  1.0000
  O   O4        1.0  0.9709304250696676  0.22206454506972806  0.46705381458453976  1.0000
  O   O5        1.0  0.8461355237289534  0.6024342680961687  0.4449166102847839  1.0000
  O   O6        1.0  0.845229864668923  0.40536474442222903  0.6624293098907204  1.0000
  O   O7        1.0  0.8469103262585708  0.42176648149425944  0.24289380362805968  1.0000
  O   O8        1.0  0.8460046104273397  0.22469539810105865  0.4604065777713613  1.0000
