data_image0
_chemical_formula_structural       NC12NC2H8C6NCSNH8C12H10Zn2C4O8
_chemical_formula_sum              "N4 C37 H26 S1 Zn2 O8"
_cell_length_a       17.80743265337812
_cell_length_b       9.27507834575679
_cell_length_c       10.299141136925906
_cell_angle_alpha    85.3652753601135
_cell_angle_beta     91.556080336852
_cell_angle_gamma    90.00966593732542

_space_group_name_H-M_alt    "P 1"
_space_group_IT_number       1

loop_
  _space_group_symop_operation_xyz
  'x, y, z'

loop_
  _atom_site_type_symbol
  _atom_site_label
  _atom_site_symmetry_multiplicity
  _atom_site_fract_x
  _atom_site_fract_y
  _atom_site_fract_z
  _atom_site_occupancy
  N   N1        1.0  0.71519351031851  0.5627737580992875  0.5972650153266919  1.0000
  C   C1        1.0  0.664527973166839  0.5956241745112767  0.5284785063097588  1.0000
  C   C2        1.0  0.6014950198083755  0.6364877069048678  0.44291674368100464  1.0000
  C   C3        1.0  0.613503404065001  0.696524357652804  0.3161365207775393  1.0000
  C   C4        1.0  0.5523697047207587  0.7357171892463661  0.23297514024057553  1.0000
  C   C5        1.0  0.47907468221212707  0.7151661876578348  0.27593329532935873  1.0000
  C   C6        1.0  0.4660889487156142  0.6549974472501969  0.40318202491195443  1.0000
  C   C7        1.0  0.5280799790813171  0.6158082345629556  0.4863268835680057  1.0000
  C   C8        1.0  0.3882199671662938  0.633208171228917  0.4490037976884578  1.0000
  C   C9        1.0  0.36961987423354953  0.6633655764336652  0.5759787516018269  1.0000
  C   C10       1.0  0.29629515423717695  0.6428607369780241  0.6189773543351647  1.0000
  C   C11       1.0  0.2406262901970222  0.5919158330487988  0.5358397411907352  1.0000
  C   C12       1.0  0.1651621115699139  0.5707965737896261  0.5802409194632958  1.0000
  N   N2        1.0  0.10449425565003431  0.5538181097359636  0.6159364123727342  1.0000
  C   C13       1.0  0.2585340449598463  0.5615706616965535  0.40940826722505497  1.0000
  C   C14       1.0  0.3318059353103074  0.582091998495982  0.36615372040237637  1.0000
  H   H1        1.0  0.6700462975930133  0.7129988077681877  0.28165551607406925  1.0000
  H   H2        1.0  0.5617870689120996  0.7825019162882703  0.13507109151776087  1.0000
  H   H3        1.0  0.4325904611942817  0.7481007730563194  0.210254700208254  1.0000
  H   H4        1.0  0.5193530069031492  0.5674849266298101  0.5841104014442182  1.0000
  H   H5        1.0  0.41152525623849023  0.704640036814552  0.6414504990609327  1.0000
  H   H6        1.0  0.2830001912222026  0.6670949572156282  0.7169302217158637  1.0000
  H   H7        1.0  0.21591916389066604  0.5217036087738598  0.3443459108480902  1.0000
  H   H8        1.0  0.3445637491483368  0.5561522058094852  0.268508554078035  1.0000
  C   C15       1.0  0.9076534015489917  0.13472197818678255  0.6076955634204193  1.0000
  C   C16       1.0  0.8829628443241744  0.21808142092409444  0.4946112749268554  1.0000
  C   C17       1.0  0.8657555040075134  0.15341414569407053  0.3798767593245844  1.0000
  C   C18       1.0  0.8736678725391303  0.0036601117562997665  0.37499821839312264  1.0000
  C   C19       1.0  0.895644086003154  0.918874516269877  0.4883122804117439  1.0000
  C   C20       1.0  0.9120414901876075  0.9818586689722784  0.6055173987012368  1.0000
  N   N3        1.0  0.8552247007205671  0.9346896817963779  0.2582313417968196  1.0000
  C   C21       1.0  0.8648955718960352  0.0010351827816541537  0.1289580528513279  1.0000
  S   S1        1.0  0.8157924349079683  0.9422839719254129  0.00738998387763079  1.0000
  N   N4        1.0  0.922634544489663  0.10570164930426795  0.10261884544395583  1.0000
  H   H9        1.0  0.9124803085808122  0.3966746483253538  0.8225381188143381  1.0000
  H   H10       1.0  0.8782773693812242  0.3345786417142902  0.4941006515243249  1.0000
  H   H11       1.0  0.8460468231830923  0.22058141529420094  0.29496838941364456  1.0000
  H   H12       1.0  0.8987584508693707  0.8025203086381326  0.48515243602367986  1.0000
  H   H13       1.0  0.9778835394546395  0.6843216269379762  0.7909201714167537  1.0000
  H   H14       1.0  0.8340395020385023  0.8293489206236222  0.26793287561832213  1.0000
  H   H15       1.0  0.9613250777235697  0.13083947972840848  0.17526632253454633  1.0000
  H   H16       1.0  0.929197449148654  0.15385030117037823  0.008415712941192588  1.0000
  C   C22       1.0  0.9097627053539303  0.5584153781498464  0.22520908535065254  1.0000
  C   C23       1.0  0.9883068865260041  0.572144768372084  0.22711711183929495  1.0000
  C   C24       1.0  0.02821917237683147  0.5789776160051485  0.11095538140002703  1.0000
  C   C25       1.0  0.9885256008380254  0.5718957935592952  0.9918625848005589  1.0000
  C   C26       1.0  0.9099322182248901  0.5581652428630908  0.9880039379373975  1.0000
  C   C27       1.0  0.8710346915821222  0.5515072024168712  0.1051460121148986  1.0000
  C   C28       1.0  0.1113110226880123  0.5935037464896893  0.11401864039711618  1.0000
  C   C29       1.0  0.155607812057446  0.5136001847613458  0.03414218355167131  1.0000
  C   C30       1.0  0.23381302604829823  0.5274524762469834  0.037262662214035736  1.0000
  C   C31       1.0  0.26862294551940136  0.6210007354802181  0.11982429066066858  1.0000
  C   C32       1.0  0.22529808807847984  0.7008915075357429  0.19950265478856632  1.0000
  C   C33       1.0  0.14707506297267225  0.6874013064556976  0.19685011861293544  1.0000
  H   H17       1.0  0.8795459164168333  0.5532076753099691  0.5519453829654748  1.0000
  H   H18       1.0  0.018724512306008467  0.5755631091228393  0.319316758338962  1.0000
  H   H19       1.0  0.018904624311745888  0.5790963202659534  0.9018714970734365  1.0000
  H   H20       1.0  0.8104515914374973  0.5409214221321847  0.10295837354763693  1.0000
  H   H21       1.0  0.7615472431706305  0.5331656930786157  0.7733609528388943  1.0000
  H   H22       1.0  0.12986126881399196  0.43910515836389385  0.970607671055475  1.0000
  H   H23       1.0  0.2674637881942681  0.46529549316792984  0.9758210352150392  1.0000
  H   H24       1.0  0.32916581123910205  0.6315830121376187  0.12205880486724552  1.0000
  H   H25       1.0  0.25232593452924723  0.7736543437128685  0.26318363157371194  1.0000
  H   H26       1.0  0.11451878910353908  0.7517048925036722  0.25823399072465847  1.0000
  Zn  Zn1       1.0  0.8275372811167843  0.5601854979853724  0.6026606745831817  1.0000
  Zn  Zn2       1.0  0.9921504237658528  0.5563946005702165  0.6105513772107187  1.0000
  C   C34       1.0  0.9098687164557283  0.5524663326277419  0.8438340459495475  1.0000
  C   C35       1.0  0.909820795452879  0.5641155444503052  0.36937821480712185  1.0000
  C   C36       1.0  0.9112070390676257  0.821733571300068  0.6007533986691311  1.0000
  C   C37       1.0  0.9084824077087317  0.29484657407221415  0.6124589330945791  1.0000
  O   O1        1.0  0.9723100881715278  0.5645836537676006  0.420757188358136  1.0000
  O   O2        1.0  0.9723169843992995  0.5491199318648572  0.7984435620382455  1.0000
  O   O3        1.0  0.9733968550106927  0.7665566513922966  0.6021541752995527  1.0000
  O   O4        1.0  0.9712301614206299  0.3471469458840142  0.617046474995792  1.0000
  O   O5        1.0  0.8484574872876273  0.7694331539667945  0.5961655740985634  1.0000
  O   O6        1.0  0.8473776256341038  0.5519981674403402  0.7924548871306702  1.0000
  O   O7        1.0  0.8473707288489641  0.5674618395896651  0.4147669520648396  1.0000
  O   O8        1.0  0.8462908020631909  0.3500251213574459  0.6110563361039874  1.0000
