data_image0
_chemical_formula_structural       NC12NC2H8C10H6C7N4H6Zn2C4O8
_chemical_formula_sum              "N6 C35 H20 Zn2 O8"
_cell_length_a       17.80743265337812
_cell_length_b       10.30283237001006
_cell_length_c       9.274190830515497
_cell_angle_alpha    85.16404939607115
_cell_angle_beta     91.08905223573423
_cell_angle_gamma    89.43531271068052

_space_group_name_H-M_alt    "P 1"
_space_group_IT_number       1

loop_
  _space_group_symop_operation_xyz
  'x, y, z'

loop_
  _atom_site_type_symbol
  _atom_site_label
  _atom_site_symmetry_multiplicity
  _atom_site_fract_x
  _atom_site_fract_y
  _atom_site_fract_z
  _atom_site_occupancy
  N   N1        1.0  0.7136332052384532  0.41580294417868746  0.44616620542885577  1.0000
  C   C1        1.0  0.6631184751037603  0.44582169858674137  0.36984513789677664  1.0000
  C   C2        1.0  0.6002730976271049  0.4831628250857085  0.2749113374506871  1.0000
  C   C3        1.0  0.6125620809990313  0.5380313986833785  0.13424273442673806  1.0000
  C   C4        1.0  0.5516134173035154  0.5738530374634931  0.04197074518862021  1.0000
  C   C5        1.0  0.4782243977070632  0.5550739915687759  0.08963423818458227  1.0000
  C   C6        1.0  0.4649565620828217  0.5000834555565208  0.23082292775869484  1.0000
  C   C7        1.0  0.5267626151990648  0.46426518239796066  0.3230765731841214  1.0000
  C   C8        1.0  0.3869866339371201  0.4801710970760027  0.28166407532255455  1.0000
  C   C9        1.0  0.36763675710711274  0.5064820563912642  0.42280663043497  1.0000
  C   C10       1.0  0.2942176113892804  0.48774429429295685  0.4705151885548342  1.0000
  C   C11       1.0  0.23920165457521342  0.4424356593721315  0.37801213786888854  1.0000
  C   C12       1.0  0.16363968755449282  0.4231356787012115  0.4272770614832362  1.0000
  N   N2        1.0  0.10289321666154731  0.4076197927228542  0.4668826709707061  1.0000
  C   C13       1.0  0.2578576290218972  0.4159521332889038  0.23747279804318477  1.0000
  C   C14       1.0  0.33122505518012874  0.4347064227319901  0.18947995887996383  1.0000
  H   H1        1.0  0.6691805323361212  0.5530856724782205  0.09598485966333214  1.0000
  H   H2        1.0  0.5612452769464008  0.6166045903811257  0.9333428180546361  1.0000
  H   H3        1.0  0.4318760269340897  0.5851481205669855  0.016765991117278833  1.0000
  H   H4        1.0  0.5178296987726353  0.42012959210388545  0.4315662079380962  1.0000
  H   H5        1.0  0.4090219721644834  0.5432024932250519  0.495657057304959  1.0000
  H   H6        1.0  0.2803392043282997  0.5089143239064171  0.5794002030553855  1.0000
  H   H7        1.0  0.21575369521298862  0.3804957742943089  0.16508118357282764  1.0000
  H   H8        1.0  0.344573730619462  0.41199924337778726  0.08093189762820607  1.0000
  C   C15       1.0  0.9082667517211053  0.030458700232946834  0.4565308319456809  1.0000
  C   C16       1.0  0.9449565409345564  0.03883679144269592  0.3233810681312266  1.0000
  C   C17       1.0  0.9632104021653811  0.9259015712966797  0.2571369898852245  1.0000
  C   C18       1.0  0.9449566416302435  0.8035341953772983  0.32338137565673675  1.0000
  C   C19       1.0  0.9082668051354613  0.792953852765127  0.45653086429261003  1.0000
  C   C20       1.0  0.890113057302862  0.9070160092975492  0.5224118316056732  1.0000
  C   C21       1.0  0.0008209218748367331  0.9356187513377775  0.1206457086749364  1.0000
  C   C22       1.0  0.032309011059893145  0.9437541981149805  0.006372502946959457  1.0000
  C   C23       1.0  0.06918124752762855  0.9532806505886776  0.8725597793682551  1.0000
  C   C24       1.0  0.10066449126650823  0.9614148662678885  0.7583039572191237  1.0000
  H   H9        1.0  0.8943730338865963  0.3546084026832652  0.5069523013944905  1.0000
  H   H10       1.0  0.959429910307205  0.13299445484718864  0.27085613081812254  1.0000
  H   H11       1.0  0.9594301458921864  0.7168553435575434  0.27085621966333795  1.0000
  H   H12       1.0  0.8618182081051277  0.8997058449298404  0.6250952408815114  1.0000
  H   H13       1.0  0.8943728224973542  0.4616247970041358  0.5069520797699893  1.0000
  H   H14       1.0  0.12830937645355456  0.9685575073923587  0.6579778263735929  1.0000
  C   C25       1.0  0.9099632263586749  0.41432023250776484  0.03283700309300963  1.0000
  C   C26       1.0  0.9584409863114501  0.3281760331571293  0.11591604915653297  1.0000
  C   C27       1.0  0.0009346019648459603  0.23545891818965958  0.05127660535002043  1.0000
  C   C28       1.0  0.996103855609381  0.22605997449623927  0.9015099847449743  1.0000
  C   C29       1.0  0.9488776847356619  0.31352072254555075  0.817023115136013  1.0000
  C   C30       1.0  0.9065703094680488  0.4090923552967636  0.8802246792225996  1.0000
  C   C31       1.0  0.0412486091322819  0.12581235018142967  0.8351832513546373  1.0000
  N   N3        1.0  0.09073289769821913  0.04421435799620688  0.9089109811588161  1.0000
  N   N4        1.0  0.11840893371191918  0.9709717719865678  0.8113095994311221  1.0000
  N   N5        1.0  0.08746180157643857  0.005371205523941214  0.6826539131121039  1.0000
  N   N6        1.0  0.03915407476654886  0.1017340301221148  0.6947650844672895  1.0000
  H   H15       1.0  0.8551285859425096  0.6078734048344419  0.2940587868793296  1.0000
  H   H16       1.0  0.9621993532661054  0.3303110486890055  0.23242216481436628  1.0000
  H   H17       1.0  0.03706524151969903  0.16987501783321335  0.1193146756663861  1.0000
  H   H18       1.0  0.9462061222305902  0.3102894641497529  0.7008265896229107  1.0000
  H   H19       1.0  0.8028935166299603  0.5311015202334828  0.584994593519919  1.0000
  H   H20       1.0  0.006757824367633614  0.14656953752319768  0.6094816334952275  1.0000
  Zn  Zn1       1.0  0.8259652060903592  0.4134379458955104  0.45215284772785025  1.0000
  Zn  Zn2       1.0  0.9905611661937832  0.4099741281724678  0.4609077973559983  1.0000
  C   C32       1.0  0.9072099869499924  0.40490843491826145  0.7200501811275257  1.0000
  C   C33       1.0  0.9093181821500307  0.4185052385709098  0.19301070117303998  1.0000
  C   C34       1.0  0.9082859532866395  0.6488615828654369  0.45078112783736324  1.0000
  C   C35       1.0  0.9082421593401739  0.17455053150458122  0.462279828398537  1.0000
  O   O1        1.0  0.9715650084808222  0.41858960004931656  0.25008891521037535  1.0000
  O   O2        1.0  0.9698876875093383  0.40219413907415524  0.6696163559461128  1.0000
  O   O3        1.0  0.9707556958914416  0.5991893997145221  0.4521796455021607  1.0000
  O   O4        1.0  0.9706969443664201  0.22159435054572452  0.4675255144853938  1.0000
  O   O5        1.0  0.8458293717492296  0.6018177247057448  0.4455351276032309  1.0000
  O   O6        1.0  0.8449613636718433  0.40482402436802234  0.662971761116625  1.0000
  O   O7        1.0  0.8466386916388672  0.42121945080205325  0.24344258569612975  1.0000
  O   O8        1.0  0.8457706270882712  0.22422419134517746  0.46087929314485865  1.0000
