data_image0
_chemical_formula_structural       NC12NC2H8C7NC2OH7C6SCNH5Zn2C4O8
_chemical_formula_sum              "N4 C34 H20 O9 S1 Zn2"
_cell_length_a       17.80743265337812
_cell_length_b       10.300333997791364
_cell_length_c       9.275272990362726
_cell_angle_alpha    85.04385528522843
_cell_angle_beta     91.20895717805207
_cell_angle_gamma    89.43519355652523

_space_group_name_H-M_alt    "P 1"
_space_group_IT_number       1

loop_
  _space_group_symop_operation_xyz
  'x, y, z'

loop_
  _atom_site_type_symbol
  _atom_site_label
  _atom_site_symmetry_multiplicity
  _atom_site_fract_x
  _atom_site_fract_y
  _atom_site_fract_z
  _atom_site_occupancy
  N   N1        1.0  0.711917421696556  0.4191175375157936  0.44598840312177845  1.0000
  C   C1        1.0  0.6613184671109468  0.4492894855287948  0.3696589253212579  1.0000
  C   C2        1.0  0.5983683250177789  0.4868211659707955  0.2747146635470703  1.0000
  C   C3        1.0  0.6105020735278194  0.5419719814468948  0.13403056317557827  1.0000
  C   C4        1.0  0.5494515832820476  0.5779787163879231  0.0417484097919929  1.0000
  C   C5        1.0  0.4761151629850778  0.5591039913375875  0.08941715537037154  1.0000
  C   C6        1.0  0.4630031360594221  0.503830189604789  0.23062139892836586  1.0000
  C   C7        1.0  0.5249109954875172  0.46782685616927133  0.3228852065093073  1.0000
  C   C8        1.0  0.38508931377682015  0.48381580203990326  0.28146814828677  1.0000
  C   C9        1.0  0.3658950893318044  0.5098633571945608  0.4226255879877816  1.0000
  C   C10       1.0  0.29252859256875263  0.49102983983634174  0.4703394031737871  1.0000
  C   C11       1.0  0.237410659536606  0.44588701103755346  0.37782682668350653  1.0000
  C   C12       1.0  0.16190305893992582  0.4264881632744886  0.4270971784609843  1.0000
  N   N2        1.0  0.1012002949118988  0.41089279494833475  0.4667071518184287  1.0000
  C   C13       1.0  0.2559116471953041  0.41966569405927223  0.23727266821234982  1.0000
  C   C14       1.0  0.329226110802715  0.4385162862037697  0.18927454143514066  1.0000
  H   H1        1.0  0.6670783052097924  0.5571030490372357  0.09576847249734932  1.0000
  H   H2        1.0  0.5589635660630622  0.6209483163428571  0.9331085120953584  1.0000
  H   H3        1.0  0.42968637630360945  0.5893247271154269  0.016540866969489754  1.0000
  H   H4        1.0  0.5160978051750336  0.4234731465805459  0.4313868083426675  1.0000
  H   H5        1.0  0.4073606140273846  0.546453466447657  0.4954835083871978  1.0000
  H   H6        1.0  0.27877026306005587  0.5119968773681056  0.5792358933231021  1.0000
  H   H7        1.0  0.21372790819947282  0.3843390930322479  0.1648735989659007  1.0000
  H   H8        1.0  0.3424550823574057  0.4160110809721722  0.08071505314513261  1.0000
  C   C15       1.0  0.9065629005056918  0.03365976117031977  0.4563572877966515  1.0000
  C   C16       1.0  0.8871672244117479  0.04449938133972542  0.30822564551617937  1.0000
  C   C17       1.0  0.8773815009716145  0.9328798749171522  0.2334877167028695  1.0000
  C   C18       1.0  0.8871652022738525  0.8092079089388168  0.3082128615499795  1.0000
  C   C19       1.0  0.9065619925569441  0.796340300848585  0.4563510825584298  1.0000
  C   C20       1.0  0.9161528085947599  0.9091380805738967  0.5295969298064216  1.0000
  C   C21       1.0  0.8569676015701194  0.9460323789162014  0.07756798842734458  1.0000
  N   N3        1.0  0.8465009593939381  0.8438518402328214  0.9976204933177013  1.0000
  C   C22       1.0  0.8291064249195931  0.9006103335558788  0.86475913674944  1.0000
  C   C23       1.0  0.8296005637293525  0.03377603031832499  0.8685362152892058  1.0000
  O   O1        1.0  0.8469584949524099  0.058684475911513934  0.0011188856446129325  1.0000
  H   H9        1.0  0.9139452791604346  0.35695782872322024  0.5127917720603845  1.0000
  H   H10       1.0  0.879638248919561  0.1399772060561877  0.25072071602153123  1.0000
  H   H11       1.0  0.879651695173432  0.7228801870018569  0.25083034516803226  1.0000
  H   H12       1.0  0.931113532674936  0.8999935109060594  0.6438568596482297  1.0000
  H   H13       1.0  0.9139510634021223  0.46400747583564506  0.5128154281553488  1.0000
  H   H14       1.0  0.8168504482135758  0.8480677820519797  0.7711452010222453  1.0000
  H   H15       1.0  0.8179155863633278  0.10634416546901293  0.7792861903214927  1.0000
  C   C24       1.0  0.9077915242835739  0.4184245711392207  0.03261499438377857  1.0000
  C   C25       1.0  0.8505558972102987  0.4866825129333112  0.09732186111940755  1.0000
  C   C26       1.0  0.7907240980119593  0.5437256304979192  0.014490701482748225  1.0000
  C   C27       1.0  0.7870390611984324  0.5338550318447952  0.8654644484426419  1.0000
  C   C28       1.0  0.8438599934495068  0.46791162188260005  0.7988064143883506  1.0000
  C   C29       1.0  0.9053333582849766  0.411575526511752  0.8800933555959727  1.0000
  S   S1        1.0  0.7095719433311293  0.6058435500025949  0.759675548898703  1.0000
  C   C30       1.0  0.756040068873841  0.75560709936738  0.7259034567774711  1.0000
  N   N4        1.0  0.7865237619104624  0.8537805956428683  0.7037794700936351  1.0000
  H   H16       1.0  0.026877785648396824  0.35680392890497403  0.32449058825991983  1.0000
  H   H17       1.0  0.851104392580365  0.4933208168247245  0.21326356427514037  1.0000
  H   H18       1.0  0.7468718686328554  0.5947915330670328  0.06664255703756994  1.0000
  H   H19       1.0  0.8409087299908584  0.4635924541762757  0.6825093016426842  1.0000
  H   H20       1.0  0.08392052696157926  0.32765986305507444  0.7923791323465479  1.0000
  Zn  Zn1       1.0  0.8242560291473755  0.41674052018061225  0.4519757052085318  1.0000
  Zn  Zn2       1.0  0.9888616508404292  0.4132591243600281  0.46073161976213717  1.0000
  C   C31       1.0  0.9057963237168015  0.40769683139718693  0.7199017683390461  1.0000
  C   C32       1.0  0.9073231533464706  0.4223044125001869  0.1928057938606451  1.0000
  C   C33       1.0  0.9065749579973089  0.6522240367649683  0.45060191450247866  1.0000
  C   C34       1.0  0.906544462676329  0.1777756474927259  0.46210572165319985  1.0000
  O   O2        1.0  0.9696329393713783  0.4222796857428732  0.24989011351345525  1.0000
  O   O3        1.0  0.9684183970481385  0.4050782829758559  0.6694625698618044  1.0000
  O   O4        1.0  0.9690463076400577  0.60253709946316  0.452000987742742  1.0000
  O   O5        1.0  0.9690049729245216  0.22482088060755911  0.4673515844516003  1.0000
  O   O6        1.0  0.8441126508914849  0.6051787651225855  0.44535573752351487  1.0000
  O   O7        1.0  0.8434847405174014  0.40772150946446484  0.6628172426910366  1.0000
  O   O8        1.0  0.8446992879227919  0.4249228809979153  0.2432430514726336  1.0000
  O   O9        1.0  0.8440713211590744  0.22746406570011568  0.4607046305961424  1.0000
