data_image0
_chemical_formula_structural       NC12NC2H8C6OCH8C7NC2OH7Zn2C4O8
_chemical_formula_sum              "N3 C34 H23 O10 Zn2"
_cell_length_a       17.80743265337812
_cell_length_b       9.273888216677433
_cell_length_c       10.300337369960102
_cell_angle_alpha    85.76048574730824
_cell_angle_beta     91.53453705670806
_cell_angle_gamma    88.85715842325122

_space_group_name_H-M_alt    "P 1"
_space_group_IT_number       1

loop_
  _space_group_symop_operation_xyz
  'x, y, z'

loop_
  _atom_site_type_symbol
  _atom_site_label
  _atom_site_symmetry_multiplicity
  _atom_site_fract_x
  _atom_site_fract_y
  _atom_site_fract_z
  _atom_site_occupancy
  N   N1        1.0  0.6992685353491117  0.5620917665577589  0.6060169874055392  1.0000
  C   C1        1.0  0.6482769420412936  0.5949150161759891  0.5374202751758939  1.0000
  C   C2        1.0  0.584838397693338  0.6357447562457104  0.4520946054249455  1.0000
  C   C3        1.0  0.596251125599185  0.6957314090388975  0.32566140892505513  1.0000
  C   C4        1.0  0.5347286607209004  0.734891471488182  0.24272663135610073  1.0000
  C   C5        1.0  0.4616376331950833  0.714357441030915  0.2855660618417277  1.0000
  C   C6        1.0  0.44924882463573856  0.6542388704732094  0.4124669734115163  1.0000
  C   C7        1.0  0.5116285865952065  0.6150824210173358  0.49538525133391076  1.0000
  C   C8        1.0  0.37159606862621425  0.632467678015209  0.45816282718961276  1.0000
  C   C9        1.0  0.3526545798107929  0.6626622156801978  0.5852838380463954  1.0000
  C   C10       1.0  0.27953336627747655  0.6421743539441616  0.6281639625605573  1.0000
  C   C11       1.0  0.22441215548633583  0.5912096096282802  0.5447601445675712  1.0000
  C   C12       1.0  0.1491575560610256  0.5701078740842513  0.5890392775476134  1.0000
  N   N2        1.0  0.0886581877390828  0.5531434978967313  0.6246366542602171  1.0000
  C   C13       1.0  0.24266313654119162  0.5608275101697118  0.41818150653990815  1.0000
  C   C14       1.0  0.3157314056745474  0.5813317833227316  0.37504556606829587  1.0000
  H   H1        1.0  0.6526304989009891  0.7121922400495695  0.29127558483905114  1.0000
  H   H2        1.0  0.5436816507677972  0.7816375278455476  0.1450928775020377  1.0000
  H   H3        1.0  0.41482579390483065  0.747265862258101  0.22007726301271657  1.0000
  H   H4        1.0  0.5033819992603636  0.5667979649685557  0.592890080421719  1.0000
  H   H5        1.0  0.394116681988624  0.7039521350358855  0.6509715382571128  1.0000
  H   H6        1.0  0.2659649640706064  0.6664370804329713  0.7262348051982601  1.0000
  H   H7        1.0  0.2004768234192033  0.520944930184331  0.35291083135886514  1.0000
  H   H8        1.0  0.3287803094907796  0.5553638293340142  0.2772730541108279  1.0000
  C   C15       1.0  0.8961730682936847  0.1341047521169274  0.6141057292423653  1.0000
  C   C16       1.0  0.8786272632027818  0.2177708838202448  0.49727834239388335  1.0000
  C   C17       1.0  0.8546895035585775  0.1535964766579001  0.38523993957120695  1.0000
  C   C18       1.0  0.8481585939825937  0.0027656677633882687  0.3896052572418096  1.0000
  C   C19       1.0  0.8664906327125822  0.917886367373592  0.5039723426086904  1.0000
  C   C20       1.0  0.8917608875416914  0.9811192756687888  0.6165594169757131  1.0000
  O   O1        1.0  0.8375990938304547  0.24341923985143987  0.2722520885893074  1.0000
  C   C21       1.0  0.8125219642579916  0.19307105343359554  0.1515491104513793  1.0000
  H   H9        1.0  0.9022938592150451  0.21064827739744718  0.9339608603197027  1.0000
  H   H10       1.0  0.8818005801483046  0.33457353464735573  0.49358102471953447  1.0000
  H   H11       1.0  0.8296129288927022  0.9497550029959868  0.3047333279059776  1.0000
  H   H12       1.0  0.862586338359301  0.8015076707885962  0.5033532451815201  1.0000
  H   H13       1.0  0.8990317182316968  0.6820212741940794  0.8312449516783684  1.0000
  H   H14       1.0  0.7586052786145698  0.13618603235308324  0.16393691509430997  1.0000
  H   H15       1.0  0.8556579895467173  0.11947152446423637  0.11467362726547581  1.0000
  H   H16       1.0  0.8033837531480819  0.28696655226332335  0.07931794624182209  1.0000
  C   C22       1.0  0.8939653350682253  0.5576125406195811  0.23399237669471828  1.0000
  C   C23       1.0  0.9716219759745373  0.5273789545361638  0.23858509917578785  1.0000
  C   C24       1.0  0.010802560295219976  0.5121247716494068  0.12381379625526101  1.0000
  C   C25       1.0  0.9716288115542366  0.5273770126347535  0.003293129032248432  1.0000
  C   C26       1.0  0.8939686266193314  0.5576114404577472  0.9966727233525274  1.0000
  C   C27       1.0  0.8555700635511619  0.5725602721907177  0.11255934737196571  1.0000
  C   C28       1.0  0.09254143470164489  0.48029912792440377  0.13039106790582555  1.0000
  N   N3        1.0  0.13445269349293465  0.4639795316938846  0.024839200144577633  1.0000
  C   C29       1.0  0.2041032818040187  0.43685956920317714  0.07599493190093543  1.0000
  C   C30       1.0  0.2021233646059455  0.4376311807816038  0.2093198875972735  1.0000
  O   O2        1.0  0.13261885557424735  0.4646945088483796  0.23981926024022182  1.0000
  H   H17       1.0  0.8643828051251692  0.5691429367982979  0.5596694020523674  1.0000
  H   H18       1.0  0.0017682038585982163  0.515641475579764  0.3316377701753288  1.0000
  H   H19       1.0  0.0017110967454683212  0.515665394520866  0.9145455473667439  1.0000
  H   H20       1.0  0.7956703731011485  0.5958805661643325  0.10823332161251642  1.0000
  H   H21       1.0  0.8643693941086011  0.56914304919414  0.6667207205856127  1.0000
  H   H22       1.0  0.2531789510529623  0.41775059134653847  0.019504737894908697  1.0000
  H   H23       1.0  0.24891146241390416  0.4194135646364294  0.2781241549696305  1.0000
  Zn  Zn1       1.0  0.8116380011777361  0.5595056390666859  0.6113976962672265  1.0000
  Zn  Zn2       1.0  0.9762887807425564  0.5557178612638467  0.6192665035728273  1.0000
  C   C31       1.0  0.8939962640906157  0.5518663197640143  0.852493117490259  1.0000
  C   C32       1.0  0.8939323063326727  0.5633589589022534  0.3781713010051928  1.0000
  C   C33       1.0  0.8925910072406087  0.8210155974828977  0.6109206481602074  1.0000
  C   C34       1.0  0.895337516025084  0.2942079497490233  0.619743831864116  1.0000
  O   O3        1.0  0.9564053671221061  0.5638437755912442  0.42954521823176073  1.0000
  O   O4        1.0  0.956489340896974  0.548505579377814  0.8070910659672006  1.0000
  O   O5        1.0  0.9553537359088139  0.7658470443685446  0.6120195519063578  1.0000
  O   O6        1.0  0.9575409158719453  0.34650232221001565  0.624616632270065  1.0000
  O   O7        1.0  0.8303858098611087  0.7687211794146698  0.6060475648779253  1.0000
  O   O8        1.0  0.8315214058196256  0.551381447152439  0.801119014717834  1.0000
  O   O9        1.0  0.8314374323497623  0.566719593109813  0.4235716055560941  1.0000
  O   O10       1.0  0.8325729811506838  0.3493781294132352  0.6186431169248736  1.0000
