data_image0
_chemical_formula_structural       NC12NC2H8C6NCOCH9C6NO2H5Zn2C4O8
_chemical_formula_sum              "N4 C32 H22 O11 Zn2"
_cell_length_a       17.80743265337812
_cell_length_b       10.300268703208216
_cell_length_c       9.27342699604674
_cell_angle_alpha    85.15232842199102
_cell_angle_beta     91.97882923782456
_cell_angle_gamma    89.41550465668445

_space_group_name_H-M_alt    "P 1"
_space_group_IT_number       1

loop_
  _space_group_symop_operation_xyz
  'x, y, z'

loop_
  _atom_site_type_symbol
  _atom_site_label
  _atom_site_symmetry_multiplicity
  _atom_site_fract_x
  _atom_site_fract_y
  _atom_site_fract_z
  _atom_site_occupancy
  N   N1        1.0  0.7007712241521463  0.41671091293297446  0.44531652436305924  1.0000
  C   C1        1.0  0.6496326582856305  0.4467642405016987  0.36895438214046417  1.0000
  C   C2        1.0  0.5860113073737091  0.4841483720597959  0.2739694899237053  1.0000
  C   C3        1.0  0.5971505809964649  0.539080551471711  0.13322518913995451  1.0000
  C   C4        1.0  0.5354477957362592  0.574943869667119  0.04090354856183631  1.0000
  C   C5        1.0  0.4624483760163479  0.5561432242841269  0.08859269376621381  1.0000
  C   C6        1.0  0.45033448469458476  0.5010888678105081  0.2298573596227227  1.0000
  C   C7        1.0  0.5128945102074232  0.4652289225699835  0.3221606465800948  1.0000
  C   C8        1.0  0.3727801067009358  0.4811534999319764  0.2807258676086639  1.0000
  C   C9        1.0  0.3545675128810162  0.5074212761317238  0.4219430170699785  1.0000
  C   C10       1.0  0.2815383235727997  0.48866190909763474  0.4696772506663245  1.0000
  C   C11       1.0  0.22578262827316323  0.44337445758975513  0.3771257803533923  1.0000
  C   C12       1.0  0.1506233291314025  0.42405217962040553  0.42641721621975703  1.0000
  N   N2        1.0  0.0902005755181295  0.4085183681406026  0.4660441397344699  1.0000
  C   C13       1.0  0.24330623733121862  0.41693385777578773  0.23651216973883837  1.0000
  C   C14       1.0  0.3162814025033922  0.4357098567647173  0.18849350369485363  1.0000
  H   H1        1.0  0.6534563174942101  0.5541521576185977  0.09494672453367037  1.0000
  H   H2        1.0  0.5441917435731869  0.6177446371769133  0.9322171593084323  1.0000
  H   H3        1.0  0.4155041091250073  0.5862507208297292  0.015685206658354156  1.0000
  H   H4        1.0  0.504848663381297  0.42104381549072256  0.43070869304290427  1.0000
  H   H5        1.0  0.3965350982681098  0.5441252932714766  0.49483155930666367  1.0000
  H   H6        1.0  0.2685371034854627  0.5097988461709815  0.5786197967249413  1.0000
  H   H7        1.0  0.2006233940519793  0.38149407702309346  0.16408266270877148  1.0000
  H   H8        1.0  0.3287559265683866  0.41303526104911126  0.07988811567896992  1.0000
  C   C15       1.0  0.8955658720107242  0.031265270361138464  0.45569309457845564  1.0000
  C   C16       1.0  0.907620336191202  0.0413635102772123  0.30630831050452634  1.0000
  C   C17       1.0  0.9147208972410057  0.9291280616845854  0.2313961465247536  1.0000
  C   C18       1.0  0.9074504919770912  0.8062073327036133  0.30633527564859153  1.0000
  C   C19       1.0  0.8954131599904058  0.7939538329203972  0.4556803752702703  1.0000
  C   C20       1.0  0.8898176397057878  0.9070827743604969  0.529673594017839  1.0000
  N   N3        1.0  0.9258910725103429  0.9379036068423275  0.07802740610396852  1.0000
  C   C21       1.0  0.9696875362046246  0.03658912174895268  0.002808447643897205  1.0000
  O   O1        1.0  0.012389589501075493  0.10825719861839711  0.07172784392539877  1.0000
  C   C22       1.0  0.9690571950986322  0.04852909709207487  0.8410993335569628  1.0000
  H   H9        1.0  0.8898887221445345  0.3548998124159628  0.5120920979293193  1.0000
  H   H10       1.0  0.9099970972626023  0.13654070219653747  0.2477210823206939  1.0000
  H   H11       1.0  0.9118734011122924  0.7201323477896705  0.24749281831834757  1.0000
  H   H12       1.0  0.8805408966231153  0.8984845173088123  0.6448969796712831  1.0000
  H   H13       1.0  0.8897394808500209  0.4619523752875919  0.511870584861166  1.0000
  H   H14       1.0  0.904956069080159  0.8632932812421646  0.018923431573022675  1.0000
  H   H15       1.0  0.9113785422676584  0.03297083364979825  0.7971114878784888  1.0000
  H   H16       1.0  0.9875145476857377  0.1470716418727922  0.7999980687920396  1.0000
  H   H17       1.0  0.007680086143223797  0.9742468108090111  0.8034258145681288  1.0000
  C   C23       1.0  0.8937556274048837  0.41537382768511444  0.031767614378704456  1.0000
  C   C24       1.0  0.9373539275761372  0.5072791762261419  0.09982033866750362  1.0000
  C   C25       1.0  0.9858927402130038  0.5905577216508848  0.020889471993757125  1.0000
  C   C26       1.0  0.9906658483890264  0.5810963343023055  0.8715012479810964  1.0000
  C   C27       1.0  0.9469072575110777  0.49203133583599024  0.8019564254521345  1.0000
  C   C28       1.0  0.8972233969542656  0.40984520031420746  0.8796059235553315  1.0000
  N   N4        1.0  0.030555513247075172  0.6832455109084838  0.09268081649561033  1.0000
  O   O2        1.0  0.025724129096334147  0.6926357674135502  0.2392385770096226  1.0000
  O   O3        1.0  0.0742191384386841  0.7568575252849539  0.02315682093880511  1.0000
  H   H18       1.0  0.7887053432126928  0.3016300882025298  0.31566090189191476  1.0000
  H   H19       1.0  0.9347688247885122  0.5118408496662494  0.2157943398730624  1.0000
  H   H20       1.0  0.027780736624409608  0.6436432536627232  0.8078302837190088  1.0000
  H   H21       1.0  0.9506375058722822  0.48961188713680115  0.6858450667519982  1.0000
  H   H22       1.0  0.7395469975375537  0.24699176986429228  0.7815978553563059  1.0000
  Zn  Zn1       1.0  0.8131521608915737  0.4143432001054457  0.4513063887426425  1.0000
  Zn  Zn2       1.0  0.9778196865669486  0.41087541127296556  0.46006605047362004  1.0000
  C   C29       1.0  0.8965672891903538  0.40571689491709373  0.7193462830509185  1.0000
  C   C30       1.0  0.8944063566839013  0.4195033162043893  0.19202639348146477  1.0000
  C   C31       1.0  0.8954146395106429  0.6498270337086918  0.4499300089969518  1.0000
  C   C32       1.0  0.8955589508012636  0.1753916178720718  0.4614427415361029  1.0000
  O   O4        1.0  0.9571152163304961  0.4195675370359764  0.24913494980028617  1.0000
  O   O5        1.0  0.9588372698806343  0.403019725638573  0.6688856917605477  1.0000
  O   O6        1.0  0.9579056544251366  0.6001417578592578  0.45133009946156677  1.0000
  O   O7        1.0  0.9580467751515475  0.2224455159941594  0.46669043087104756  1.0000
  O   O8        1.0  0.8329250161139983  0.6027730965691012  0.4446820053483791  1.0000
  O   O9        1.0  0.8338566309388683  0.4056526250739847  0.6622375206498528  1.0000
  O   O10       1.0  0.8321345703488542  0.4222004025342492  0.24248504308322438  1.0000
  O   O11       1.0  0.8330661296113756  0.22507837149841348  0.4600406323853694  1.0000
