data_image0
_chemical_formula_structural       NC12NC2H8C7N4H6C12H16Zn2C4O8
_chemical_formula_sum              "N6 C37 H30 Zn2 O8"
_cell_length_a       17.80743265337812
_cell_length_b       9.274187458527196
_cell_length_c       10.298981074953016
_cell_angle_alpha    85.92092997007548
_cell_angle_beta     91.51542336112495
_cell_angle_gamma    89.89930755814211

_space_group_name_H-M_alt    "P 1"
_space_group_IT_number       1

loop_
  _space_group_symop_operation_xyz
  'x, y, z'

loop_
  _atom_site_type_symbol
  _atom_site_label
  _atom_site_symmetry_multiplicity
  _atom_site_fract_x
  _atom_site_fract_y
  _atom_site_fract_z
  _atom_site_occupancy
  N   N1        1.0  0.7144040777777243  0.5612466750989216  0.6104085382158997  1.0000
  C   C1        1.0  0.6637381115933575  0.5940488353855737  0.5418994895607703  1.0000
  C   C2        1.0  0.6007046230442192  0.6348523421679289  0.4566828673632286  1.0000
  C   C3        1.0  0.6127126623501704  0.6948003622673149  0.3304097564533788  1.0000
  C   C4        1.0  0.551578901253375  0.7339351710941038  0.24757943816656836  1.0000
  C   C5        1.0  0.4782841776762486  0.7134143277021501  0.29036401812285106  1.0000
  C   C6        1.0  0.46529871191331224  0.6533344908747543  0.4171045143173244  1.0000
  C   C7        1.0  0.5272898076632859  0.6142032919613853  0.49991834155674253  1.0000
  C   C8        1.0  0.38742993409775356  0.6315773033377827  0.46274224517804297  1.0000
  C   C9        1.0  0.3687512444725943  0.6617685659534056  0.5899662254501445  1.0000
  C   C10       1.0  0.2954267664083992  0.6412938732475857  0.6327916388422343  1.0000
  C   C11       1.0  0.2398366431401203  0.5903457753595587  0.5492294152220254  1.0000
  C   C12       1.0  0.164372666746125  0.5692576131075437  0.5934522111848914  1.0000
  N   N2        1.0  0.1037049734361152  0.5523041489281526  0.6290042967166041  1.0000
  C   C13       1.0  0.257822935220572  0.5599670842097  0.422547324494686  1.0000
  C   C14       1.0  0.3310946744914809  0.5804581590098732  0.3794661129768653  1.0000
  H   H1        1.0  0.6692553344011407  0.7112506182992999  0.2960678973770565  1.0000
  H   H2        1.0  0.5609956297694032  0.7806511976339781  0.15007053963635264  1.0000
  H   H3        1.0  0.4317981756580706  0.7463018834209552  0.22496349600934074  1.0000
  H   H4        1.0  0.5185648660027706  0.5659495706993944  0.5972938141142554  1.0000
  H   H5        1.0  0.4105936075751475  0.7030448392894746  0.6557820395267371  1.0000
  H   H6        1.0  0.2820703232789007  0.6655536224859553  0.7309447437335257  1.0000
  H   H7        1.0  0.2152696740869707  0.5200975306861773  0.3571526882879592  1.0000
  H   H8        1.0  0.34391533315206535  0.5544940010931159  0.2816064012253692  1.0000
  C   C15       1.0  0.907233947462943  0.13345951120069377  0.6172501911710482  1.0000
  C   C16       1.0  0.9461435053617986  0.21423155755987366  0.5202650668272577  1.0000
  C   C17       1.0  0.9899890186861207  0.14615064025233382  0.4324026609060172  1.0000
  C   C18       1.0  0.9962901862900899  0.9951305168637785  0.4390894299510746  1.0000
  C   C19       1.0  0.9563812570083311  0.9131831898331507  0.5341569019790604  1.0000
  C   C20       1.0  0.9108822153254033  0.9800800388568401  0.622174076710102  1.0000
  C   C21       1.0  0.043859451175006114  0.9250035474600504  0.34545641425885654  1.0000
  N   N3        1.0  0.07999128673315936  0.996898962970843  0.2475064824869735  1.0000
  N   N4        1.0  0.11582440384177639  0.8959956767538914  0.18815319470115655  1.0000
  N   N5        1.0  0.10264121830821105  0.7671141810257526  0.24665659426294684  1.0000
  N   N6        1.0  0.05791334712285878  0.7823920625203541  0.34504355219242866  1.0000
  H   H9        1.0  0.8088219964824287  0.4052185900493144  0.7428674171244527  1.0000
  H   H10       1.0  0.9441715237154032  0.3312858400710097  0.5142052506112824  1.0000
  H   H11       1.0  0.019769674471701304  0.21235542717731826  0.35989070902713416  1.0000
  H   H12       1.0  0.9587528545994318  0.7964556411881786  0.5381806125081074  1.0000
  H   H13       1.0  0.8628867728394412  0.6846513578938922  0.8192882871172997  1.0000
  H   H14       1.0  0.03911770825521721  0.6976000324207158  0.40774770946040606  1.0000
  C   C22       1.0  0.9091301208571371  0.5567379970292066  0.2383272013574187  1.0000
  C   C23       1.0  0.9819010409027629  0.4975029659913546  0.24427970431616952  1.0000
  C   C24       1.0  0.018794031284920187  0.46783476341286945  0.1300447282051822  1.0000
  C   C25       1.0  0.9817255331027404  0.4975676708467236  0.00898162327227614  1.0000
  C   C26       1.0  0.9089860469733652  0.5568015535138033  0.0010970588099734613  1.0000
  C   C27       1.0  0.8731395654299916  0.5861369897448707  0.11632110763264314  1.0000
  C   C28       1.0  0.09741927268655637  0.403482184593722  0.13630074708715956  1.0000
  C   C29       1.0  0.09833334424531781  0.24794425645862272  0.20259295292385104  1.0000
  C   C30       1.0  0.17526978895461887  0.20334520968264225  0.26541698292400895  1.0000
  C   C31       1.0  0.24023618541818403  0.27891379588736664  0.19380814559990522  1.0000
  C   C32       1.0  0.23515723704112346  0.44480478548942903  0.19599697691857298  1.0000
  C   C33       1.0  0.15400926743939491  0.5017185137262257  0.20310697183255821  1.0000
  H   H15       1.0  0.7716341336244893  0.6679799655127303  0.43443795113306805  1.0000
  H   H16       1.0  0.009936073597426098  0.4737928617014999  0.3379463077916536  1.0000
  H   H17       1.0  0.00975146987398623  0.4744317490352987  0.9207016133887738  1.0000
  H   H18       1.0  0.8170338086852602  0.6318198957757459  0.11094154978622717  1.0000
  H   H19       1.0  0.8808894023171403  0.5791845722692914  0.6706017962180799  1.0000
  H   H20       1.0  0.11689879823134874  0.39588172957770373  0.03507626451672419  1.0000
  H   H21       1.0  0.0827642854825843  0.17138563515851724  0.12807020117282453  1.0000
  H   H22       1.0  0.05566883345690443  0.23553689579158754  0.27941220946365997  1.0000
  H   H23       1.0  0.17732564074277413  0.2315950842720511  0.3686353972626768  1.0000
  H   H24       1.0  0.1823006833152696  0.08424639716293458  0.2653462041784982  1.0000
  H   H25       1.0  0.23905280462457346  0.24855346668696643  0.09120715148380465  1.0000
  H   H26       1.0  0.29457602153454343  0.24042261605615778  0.2394158096390655  1.0000
  H   H27       1.0  0.26141984903654225  0.4945962259212462  0.10694645989628015  1.0000
  H   H28       1.0  0.26825511343314457  0.4800192316317764  0.2811027319818187  1.0000
  H   H29       1.0  0.13989621657686824  0.5072843745797417  0.3071539343450045  1.0000
  H   H30       1.0  0.1506912008387855  0.6133866282950455  0.15614514392704848  1.0000
  Zn  Zn1       1.0  0.8267478922424711  0.5586622071919831  0.6157823372922819  1.0000
  Zn  Zn2       1.0  0.9913611038059849  0.5548768590806152  0.6236410227487716  1.0000
  C   C34       1.0  0.9089868753397056  0.5510468805410318  0.8568837790643336  1.0000
  C   C35       1.0  0.9091239260937094  0.5624939632582846  0.3825398048435258  1.0000
  C   C36       1.0  0.9101897490744958  0.820050430836144  0.6160678134156152  1.0000
  C   C37       1.0  0.9079209887115863  0.293488682339768  0.6233558269793606  1.0000
  O   O1        1.0  0.9715916758734068  0.5629829093069423  0.4339211655705397  1.0000
  O   O2        1.0  0.9714567396306489  0.5476838553491137  0.8114665985746681  1.0000
  O   O3        1.0  0.9724272330053364  0.7649076437042093  0.6170059710140541  1.0000
  O   O4        1.0  0.9706211263902086  0.3457591325474678  0.6283816931307289  1.0000
  O   O5        1.0  0.8474878134838452  0.7677799350184529  0.6110416642217189  1.0000
  O   O6        1.0  0.846517327582089  0.5505578785800835  0.8055022326066108  1.0000
  O   O7        1.0  0.8466522639532232  0.5658568821728811  0.42795523784636846  1.0000
  O   O8        1.0  0.8456817144041338  0.34863309511110807  0.6224158627183762  1.0000
