data_image0
_chemical_formula_structural       NC12NC2H8C7N4H6C7N4H6Zn2C4O8
_chemical_formula_sum              "N10 C32 H20 Zn2 O8"
_cell_length_a       17.80743265337812
_cell_length_b       9.274187458527196
_cell_length_c       9.274190830515497
_cell_angle_alpha    85.52371027326997
_cell_angle_beta     91.08905223573423
_cell_angle_gamma    89.89930755814211

_space_group_name_H-M_alt    "P 1"
_space_group_IT_number       1

loop_
  _space_group_symop_operation_xyz
  'x, y, z'

loop_
  _atom_site_type_symbol
  _atom_site_label
  _atom_site_symmetry_multiplicity
  _atom_site_fract_x
  _atom_site_fract_y
  _atom_site_fract_z
  _atom_site_occupancy
  N   N1        1.0  0.7203680244947006  0.5719369218675812  0.4563227070539655  1.0000
  C   C1        1.0  0.669996090280914  0.6052661281646261  0.3802169841284102  1.0000
  C   C2        1.0  0.607328340445753  0.6467252137592712  0.2855510565621797  1.0000
  C   C3        1.0  0.6198783276018202  0.7076446637738487  0.14527606252117775  1.0000
  C   C4        1.0  0.5591000635114459  0.7474166933714643  0.053261045861044964  1.0000
  C   C5        1.0  0.4856217140542066  0.7265667045218676  0.1007898241984937  1.0000
  C   C6        1.0  0.47209229448400053  0.66551184214404  0.24158402987167138  1.0000
  C   C7        1.0  0.5337279640049942  0.6257435493268917  0.33358072686296825  1.0000
  C   C8        1.0  0.3940276454338937  0.6434035596138421  0.292282332767706  1.0000
  C   C9        1.0  0.3748029269503748  0.6726160771943928  0.43361363399210173  1.0000
  C   C10       1.0  0.3012946477542449  0.6518119248957921  0.48118777360974074  1.0000
  C   C11       1.0  0.2460631627353569  0.6015066783893441  0.38835969377613244  1.0000
  C   C12       1.0  0.1704093878242783  0.5800783063601067  0.4374861657183353  1.0000
  N   N2        1.0  0.10958910956421691  0.5628513369254469  0.4769804693762745  1.0000
  C   C13       1.0  0.264593157954372  0.5721025634716288  0.24763036990158271  1.0000
  C   C14       1.0  0.3380497962096667  0.5929250657415905  0.19977206780228718  1.0000
  H   H1        1.0  0.6765683904675196  0.7243591146847725  0.10712618213431324  1.0000
  H   H2        1.0  0.5689352876006396  0.794882864263903  0.9449398042149455  1.0000
  H   H3        1.0  0.4394164026129889  0.7599573920887162  0.02813731897669136  1.0000
  H   H4        1.0  0.5245850994183204  0.5767407101698336  0.44175374750310015  1.0000
  H   H5        1.0  0.4163628170966079  0.7133860238055871  0.5067274811197688  1.0000
  H   H6        1.0  0.2875169442012503  0.6753165738465916  0.5902246548944774  1.0000
  H   H7        1.0  0.222320562136181  0.532736096515362  0.17498440324949693  1.0000
  H   H8        1.0  0.3512904560883612  0.5677137510137156  0.09106111276297124  1.0000
  C   C15       1.0  0.9131685306908631  0.1440971245440572  0.46392300153153787  1.0000
  C   C16       1.0  0.9524943361918614  0.22561528581588441  0.3561836131426377  1.0000
  C   C17       1.0  0.9967169435914932  0.1582103015626395  0.2585785222549255  1.0000
  C   C18       1.0  0.002989412448103801  0.007138736284045155  0.2660067584105912  1.0000
  C   C19       1.0  0.9626724658797643  0.9244600470051584  0.3716158542515855  1.0000
  C   C20       1.0  0.9167956658738251  0.990679772324772  0.46939287559793774  1.0000
  C   C21       1.0  0.050960538118650645  0.9377320937324686  0.1619911796097817  1.0000
  N   N3        1.0  0.08751276210756553  0.010381046502529134  0.053180000439366104  1.0000
  N   N4        1.0  0.12360061584602455  0.9099343702392301  0.9872452813968189  1.0000
  N   N5        1.0  0.1101663412928846  0.780602802820727  0.05223587175906497  1.0000
  N   N6        1.0  0.06501620601706093  0.7951237849761995  0.1615325370413787  1.0000
  H   H9        1.0  0.8142174468335832  0.41488981925693214  0.6034693823492334  1.0000
  H   H10       1.0  0.9505483624924208  0.34271618701496087  0.34945184992352774  1.0000
  H   H11       1.0  0.02680881129024626  0.22497292917719425  0.17802603135309325  1.0000
  H   H12       1.0  0.9650267942260119  0.8077015436086177  0.37608573676590606  1.0000
  H   H13       1.0  0.8679542347067596  0.6937346747683045  0.6883642345122412  1.0000
  H   H14       1.0  0.04595144902142034  0.7098493663954495  0.2311896890964278  1.0000
  C   C22       1.0  0.9166909925181945  0.57029069756102  0.04298286823543851  1.0000
  C   C23       1.0  0.964758973966845  0.47464656281701556  0.12544394433054507  1.0000
  C   C24       1.0  0.00681154447774146  0.37170465490132387  0.06013937863492003  1.0000
  C   C25       1.0  0.001936088378427625  0.36126920081571856  0.9103053331193047  1.0000
  C   C26       1.0  0.9551259586865338  0.45837507253194465  0.8264458779632844  1.0000
  C   C27       1.0  0.9132732071893053  0.5644862928981029  0.8903330413045865  1.0000
  C   C28       1.0  0.04660397495214963  0.2499663230827065  0.8432594564587443  1.0000
  N   N7        1.0  0.09570011082261476  0.15936974875461507  0.9164018292797063  1.0000
  N   N8        1.0  0.12302773989122229  0.07805001024509961  0.8182750294866707  1.0000
  N   N9        1.0  0.09224424208659543  0.11624299458028586  0.6898661133160431  1.0000
  N   N10       1.0  0.04439490265989221  0.22323265899943312  0.7026685596743318  1.0000
  H   H15       1.0  0.8627770633051336  0.7851888083298186  0.3055931384049546  1.0000
  H   H16       1.0  0.9685274969561207  0.4770170266990945  0.24196537588301492  1.0000
  H   H17       1.0  0.042630208614803156  0.29888819772819164  0.12770697176144097  1.0000
  H   H18       1.0  0.9524390254398237  0.45478747271988507  0.7102261724721468  1.0000
  H   H19       1.0  0.8101767985613451  0.6999505621022601  0.5959782089604708  1.0000
  H   H20       1.0  0.012211929850100445  0.27301260174091  0.6177067437897334  1.0000
  Zn  Zn1       1.0  0.8326887753092734  0.5693111128616279  0.4622923836382007  1.0000
  Zn  Zn2       1.0  0.9972682584118567  0.565465307206358  0.4710224849846878  1.0000
  C   C29       1.0  0.9138929822210897  0.5598409720586714  0.730128529149789  1.0000
  C   C30       1.0  0.9160658559241923  0.574937223813806  0.2031865881635342  1.0000
  C   C31       1.0  0.9161294069147223  0.8306971403133909  0.4626095149831948  1.0000
  C   C32       1.0  0.9138293673407913  0.3040793245011222  0.470705665080859  1.0000
  O   O1        1.0  0.9783130835532797  0.575030888630111  0.26026540738218884  1.0000
  O   O2        1.0  0.9765577711729316  0.5568273451469847  0.6796752325085482  1.0000
  O   O3        1.0  0.9783628643945639  0.7755471358542694  0.4636517008498635  1.0000
  O   O4        1.0  0.9765079346523254  0.35631111028775875  0.4762888279518309  1.0000
  O   O5        1.0  0.8534490429059418  0.7784653110942334  0.4570260376843236  1.0000
  O   O6        1.0  0.8516439574112151  0.5597472527589187  0.6730495036055444  1.0000
  O   O7        1.0  0.8533992766227948  0.5779507578917376  0.25363794354664027  1.0000
  O   O8        1.0  0.8515941272382994  0.35923096849845915  0.46966147221859145  1.0000
