data_image0
_chemical_formula_structural       NC12NC2H8C7N4H6C6NCOCH9Zn2C4O8
_chemical_formula_sum              "N7 C33 H23 O9 Zn2"
_cell_length_a       17.80743265337812
_cell_length_b       9.274187458527196
_cell_length_c       10.300272075376752
_cell_angle_alpha    85.89696690343966
_cell_angle_beta     91.53227337963534
_cell_angle_gamma    89.89930755814211

_space_group_name_H-M_alt    "P 1"
_space_group_IT_number       1

loop_
  _space_group_symop_operation_xyz
  'x, y, z'

loop_
  _atom_site_type_symbol
  _atom_site_label
  _atom_site_symmetry_multiplicity
  _atom_site_fract_x
  _atom_site_fract_y
  _atom_site_fract_z
  _atom_site_occupancy
  N   N1        1.0  0.7141664028456305  0.5618954069454978  0.6105301065560884  1.0000
  C   C1        1.0  0.6634887189126054  0.5947295507343975  0.5420270514116867  1.0000
  C   C2        1.0  0.600440654960947  0.6355728409626058  0.4568178843861159  1.0000
  C   C3        1.0  0.6124270965859349  0.6955798117612921  0.3305558204731176  1.0000
  C   C4        1.0  0.5512791682386811  0.73475328998611  0.24773274859259842  1.0000
  C   C5        1.0  0.4779917625117397  0.7142124725799781  0.29051358554202333  1.0000
  C   C6        1.0  0.4650279743710793  0.6540734668541015  0.4172429938504669  1.0000
  C   C7        1.0  0.5270332345508922  0.6149036062415607  0.5000495761263115  1.0000
  C   C8        1.0  0.38716700240701113  0.6322949733072492  0.4628767320965623  1.0000
  C   C9        1.0  0.3685100730989693  0.6624268413094765  0.5900895821850525  1.0000
  C   C10       1.0  0.29519291986908697  0.6419321555263571  0.6329112489979734  1.0000
  C   C11       1.0  0.23958850416567803  0.5910230687269298  0.549356335814758  1.0000
  C   C12       1.0  0.16413209161351444  0.5699142610284835  0.59357526294851  1.0000
  N   N2        1.0  0.10347047911196292  0.5529441993305184  0.6291242382077815  1.0000
  C   C13       1.0  0.2575531286134915  0.5607035192089149  0.4226853278638496  1.0000
  C   C14       1.0  0.330817499298522  0.5812147065059399  0.37960788530368395  1.0000
  H   H1        1.0  0.6689638948248903  0.7120461003166951  0.2962169657926348  1.0000
  H   H2        1.0  0.560679218888247  0.7815148386305315  0.15023238062354016  1.0000
  H   H3        1.0  0.4314945744255123  0.7471305605830156  0.2251187849899503  1.0000
  H   H4        1.0  0.5183249479357368  0.5666044251650408  0.5974165297954324  1.0000
  H   H5        1.0  0.4103636933008726  0.7036723884819394  0.6558996383684115  1.0000
  H   H6        1.0  0.2818532647907396  0.6661460819119425  0.7310557669697462  1.0000
  H   H7        1.0  0.2149886824185631  0.520864495221784  0.35729641270363155  1.0000
  H   H8        1.0  0.3436214200897507  0.555296234471153  0.28175673480422203  1.0000
  C   C15       1.0  0.9069974427232735  0.13410504901630693  0.6173711609695667  1.0000
  C   C16       1.0  0.9458904123417052  0.21492237295565064  0.5203945213645751  1.0000
  C   C17       1.0  0.9897208977301662  0.14688247428013712  0.4325398020815634  1.0000
  C   C18       1.0  0.9960232090353041  0.9958592291682917  0.43922598613496167  1.0000
  C   C19       1.0  0.9561305400398091  0.9138675198149641  0.5342851411898673  1.0000
  C   C20       1.0  0.9106465527643117  0.9807232779526884  0.6222946157427385  1.0000
  C   C21       1.0  0.043576458982550914  0.925775972410216  0.345601161922483  1.0000
  N   N3        1.0  0.07969154124016753  0.9977171159222649  0.24765979929552762  1.0000
  N   N4        1.0  0.11551450659625018  0.8968415388335316  0.18831170402915243  1.0000
  N   N5        1.0  0.10234132745082158  0.7679327307481479  0.24680998542393073  1.0000
  N   N6        1.0  0.057630284314710956  0.7831646802154941  0.34518833597527254  1.0000
  H   H9        1.0  0.8086069772415329  0.40580548336602584  0.7429773973061822  1.0000
  H   H10       1.0  0.9439173942277962  0.3319794844966648  0.5143352352913206  1.0000
  H   H11       1.0  0.019489151112801473  0.21312111346582907  0.3600341939071974  1.0000
  H   H12       1.0  0.9585028258440668  0.7971380926976253  0.5383084997047984  1.0000
  H   H13       1.0  0.8626848245806187  0.6852025740684571  0.8193915816230044  1.0000
  H   H14       1.0  0.038845370330411466  0.6983433766316329  0.40788700757315777  1.0000
  C   C22       1.0  0.9088288053451294  0.55756043533511  0.23848132121492793  1.0000
  C   C23       1.0  0.8320960874535197  0.5934287015540536  0.23156861071514023  1.0000
  C   C24       1.0  0.7936654345095498  0.6134450083304079  0.11069284800205859  1.0000
  C   C25       1.0  0.8321022636462917  0.5930998710423361  0.9964331031392764  1.0000
  C   C26       1.0  0.9088152414003298  0.557267886237129  0.0011845247658452962  1.0000
  C   C27       1.0  0.9468396682054182  0.5402231282312941  0.12270020559841788  1.0000
  N   N7        1.0  0.7148309466928997  0.6479517050389452  0.10212925035310483  1.0000
  C   C28       1.0  0.6779276126246399  0.7385449867313123  0.1883219750725189  1.0000
  O   O1        1.0  0.7155463271041883  0.814787554174393  0.2628140195315738  1.0000
  C   C29       1.0  0.5942359166038331  0.751072874395198  0.18327170570617302  1.0000
  H   H15       1.0  0.9377468730738383  0.5418537715587348  0.5686553585178316  1.0000
  H   H16       1.0  0.8018943166220164  0.6029760385942322  0.32031889777958744  1.0000
  H   H17       1.0  0.8018624319645674  0.6066028092576168  0.9036913633426695  1.0000
  H   H18       1.0  0.006026016867195949  0.5125979468290671  0.1272206149803896  1.0000
  H   H19       1.0  0.9376253716839349  0.5415854927302437  0.6757004301639036  1.0000
  H   H20       1.0  0.6832906395443686  0.6127241143843685  0.023464361885624285  1.0000
  H   H21       1.0  0.5688278486200603  0.6439183186567903  0.1690780730998409  1.0000
  H   H22       1.0  0.5738196420810069  0.7900508648436417  0.27555766246309354  1.0000
  H   H23       1.0  0.5765195919853419  0.8285295535204749  0.10099525236265983  1.0000
  Zn  Zn1       1.0  0.8265111364419103  0.5593084302763123  0.6159034355059245  1.0000
  Zn  Zn2       1.0  0.991125692150508  0.5555194133315731  0.6237614334457069  1.0000
  C   C30       1.0  0.908791357392411  0.5515805452311608  0.8569837845302879  1.0000
  C   C31       1.0  0.9088472766232568  0.5632490757989306  0.38268130826856384  1.0000
  C   C32       1.0  0.9099530421016085  0.8206965206457251  0.6161888866543934  1.0000
  C   C33       1.0  0.9076855282763876  0.2941313697345911  0.6234762626266332  1.0000
  O   O2        1.0  0.9713238146416252  0.5637140344196712  0.4340581738997802  1.0000
  O   O3        1.0  0.9712534535546737  0.5482387230850125  0.8115705773604074  1.0000
  O   O4        1.0  0.9721906864943904  0.765553295534191  0.6171269621781612  1.0000
  O   O5        1.0  0.9703865255762936  0.34639947361279866  0.6285016890903499  1.0000
  O   O6        1.0  0.8472502468412627  0.7684283712896645  0.6111631771729102  1.0000
  O   O7        1.0  0.8463130213643558  0.5511155307848381  0.8056067331846115  1.0000
  O   O8        1.0  0.8463833823125622  0.5665907924835729  0.42809276810450037  1.0000
  O   O9        1.0  0.8454460931979834  0.34927622132897174  0.6225363805983757  1.0000
