data_image0
_chemical_formula_structural       NC12NC2H8C12H10C6NCSNH8Zn2C4O8
_chemical_formula_sum              "N4 C37 H26 S1 Zn2 O8"
_cell_length_a       17.80743265337812
_cell_length_b       10.299137764757564
_cell_length_c       9.275081717742442
_cell_angle_alpha    86.11062949400466
_cell_angle_beta     91.71745222805815
_cell_angle_gamma    89.45463381285008

_space_group_name_H-M_alt    "P 1"
_space_group_IT_number       1

loop_
  _space_group_symop_operation_xyz
  'x, y, z'

loop_
  _atom_site_type_symbol
  _atom_site_label
  _atom_site_symmetry_multiplicity
  _atom_site_fract_x
  _atom_site_fract_y
  _atom_site_fract_z
  _atom_site_occupancy
  N   N1        1.0  0.7051819299348017  0.39284576579743646  0.44734860339442295  1.0000
  C   C1        1.0  0.6542446226019448  0.42172193003050573  0.371100856818839  1.0000
  C   C2        1.0  0.5908736125838656  0.457641818782033  0.2762582578052901  1.0000
  C   C3        1.0  0.6023836502128329  0.5104042916396314  0.13572497105528458  1.0000
  C   C4        1.0  0.5409240026952565  0.544844363088538  0.04354180833249366  1.0000
  C   C5        1.0  0.4677988819836406  0.5267788674146539  0.09115952376524161  1.0000
  C   C6        1.0  0.45531288734406344  0.4739022495831806  0.2322123655641033  1.0000
  C   C7        1.0  0.5176298219883053  0.43946526767444927  0.3243772035816721  1.0000
  C   C8        1.0  0.3776244742533302  0.4547510576403546  0.2830046378750921  1.0000
  C   C9        1.0  0.3590715423674236  0.48320605605749245  0.42398003812991614  1.0000
  C   C10       1.0  0.28591655620299855  0.46518254121074154  0.47164275263287636  1.0000
  C   C11       1.0  0.2303729885715988  0.4184580917588012  0.3792600778555011  1.0000
  C   C12       1.0  0.155083807879675  0.3998956773600604  0.4284776434068698  1.0000
  N   N2        1.0  0.0945566384236772  0.38497274391381087  0.4680451802808969  1.0000
  C   C13       1.0  0.2482353702021134  0.3898395817328022  0.2388872884322648  1.0000
  C   C14       1.0  0.3213370447840801  0.40787533187975544  0.19094060274470892  1.0000
  H   H1        1.0  0.6587902752388264  0.5248858155765888  0.09750384773513687  1.0000
  H   H2        1.0  0.5499544122471877  0.5859696749186936  0.9350182291104119  1.0000
  H   H3        1.0  0.42104731879773344  0.5557626336323869  0.01836073538827976  1.0000
  H   H4        1.0  0.5092973181430713  0.3969533028579759  0.432763178090092  1.0000
  H   H5        1.0  0.40087247142633786  0.521041905647665  0.4967352631273483  1.0000
  H   H6        1.0  0.2726531204890512  0.4880069294261571  0.5803984783572393  1.0000
  H   H7        1.0  0.2057185357222334  0.3532752263596384  0.16658987789154356  1.0000
  H   H8        1.0  0.3340723491126953  0.383518305955012  0.08252204832979082  1.0000
  C   C15       1.0  0.8998008188693035  0.007512164145123901  0.4578503295734584  1.0000
  C   C16       1.0  0.899523520195854  0.01600610418203363  0.30609480859863125  1.0000
  C   C17       1.0  0.8994569350101222  0.9031782437508521  0.22899724444468017  1.0000
  C   C18       1.0  0.8996713514517907  0.7807443610343379  0.3057063845146124  1.0000
  C   C19       1.0  0.8999449524069963  0.7702963401525005  0.45755627548587485  1.0000
  C   C20       1.0  0.9000092613067164  0.8841893565215612  0.5326934633725489  1.0000
  C   C21       1.0  0.899162690623717  0.913208924664349  0.0684548492020094  1.0000
  C   C22       1.0  0.944351300743649  0.8292833285512572  0.9933321690506691  1.0000
  C   C23       1.0  0.9439809531023553  0.838977412462689  0.8422098582785211  1.0000
  C   C24       1.0  0.8986077292739205  0.932205097875115  0.764511908633863  1.0000
  C   C25       1.0  0.8535102127336458  0.015997780214429547  0.8377784186771571  1.0000
  C   C26       1.0  0.85369164738688  0.006802421637454703  0.9888916618867087  1.0000
  H   H9        1.0  0.8998691428056422  0.3317215454489564  0.5162235000784001  1.0000
  H   H10       1.0  0.9003983811106276  0.110588121326882  0.24755145324523609  1.0000
  H   H11       1.0  0.8985860965275946  0.6934679913504791  0.24678534183870893  1.0000
  H   H12       1.0  0.9002210912862013  0.8769222977473896  0.6497458696691234  1.0000
  H   H13       1.0  0.8999836179493739  0.5432943424237106  0.7441395859529112  1.0000
  H   H14       1.0  0.9806546990407206  0.7573902165137418  0.05143324063789212  1.0000
  H   H15       1.0  0.9790629392160067  0.7743308023309231  0.7853155994015255  1.0000
  H   H16       1.0  0.8983942315860795  0.9395160518664496  0.6475367844812139  1.0000
  H   H17       1.0  0.8182142623106898  0.08797164653611111  0.7774354351315695  1.0000
  H   H18       1.0  0.8175941839096427  0.07165640995765021  0.043437850560739566  1.0000
  C   C27       1.0  0.8991924153708539  0.38511298344603584  0.03447975920427471  1.0000
  C   C28       1.0  0.8320408421194034  0.4147776991562411  0.10160237878926637  1.0000
  C   C29       1.0  0.7681899826449429  0.4561819854556217  0.019853619453918725  1.0000
  C   C30       1.0  0.7701925450324827  0.4704031828224884  0.8687034542373038  1.0000
  C   C31       1.0  0.8359718240917857  0.43669313059481984  0.8004019018205613  1.0000
  C   C32       1.0  0.9005533710829913  0.3926955542388608  0.8809268624793036  1.0000
  N   N3        1.0  0.7047025439744963  0.5111988671881951  0.7824210679870864  1.0000
  C   C33       1.0  0.6486195227150703  0.5997389917701872  0.8272686406338106  1.0000
  S   S1        1.0  0.5641178425912373  0.5991077178127955  0.7528109048695493  1.0000
  N   N4        1.0  0.667628627084442  0.6981714501505076  0.923232974352302  1.0000
  H   H19       1.0  0.003803912664994469  0.2680928830287619  0.33054076320733716  1.0000
  H   H20       1.0  0.8292413923390465  0.4083179787106843  0.21838067664623328  1.0000
  H   H21       1.0  0.7171313020078539  0.4767689195842255  0.07492038381588384  1.0000
  H   H22       1.0  0.8361716532813205  0.4430061094747182  0.6832992058700618  1.0000
  H   H23       1.0  0.024490236165679136  0.38061973777462565  0.6080447016051314  1.0000
  H   H24       1.0  0.6977455617319156  0.4750611762344994  0.6802792123546388  1.0000
  H   H25       1.0  0.7232269878131659  0.7120230205927458  0.9570325564376474  1.0000
  H   H26       1.0  0.6264958761783493  0.7619935622190923  0.9557533346514182  1.0000
  Zn  Zn1       1.0  0.8175470758903584  0.3905703886414771  0.4533294983610807  1.0000
  Zn  Zn2       1.0  0.9821915068733491  0.38723763213599405  0.4620760450197836  1.0000
  C   C34       1.0  0.9002934593006304  0.3860882333822362  0.7209321133874114  1.0000
  C   C35       1.0  0.8994469219122471  0.3917213910094113  0.19447366632938534  1.0000
  C   C36       1.0  0.8999046120797157  0.6260625259307186  0.45186850026822456  1.0000
  C   C37       1.0  0.8998357127802017  0.15174553986866712  0.46353735390302164  1.0000
  O   O1        1.0  0.9620140390681561  0.39266880307134766  0.25148835418136595  1.0000
  O   O2        1.0  0.9626876547958044  0.3826103527360325  0.6705554375707754  1.0000
  O   O3        1.0  0.9623728158734957  0.5763926593321194  0.4532846210407169  1.0000
  O   O4        1.0  0.9623288216364843  0.1988865059353906  0.4687590596618585  1.0000
  O   O5        1.0  0.8374097049421474  0.578921515980733  0.446646480726657  1.0000
  O   O6        1.0  0.8377245440323403  0.38514076911555994  0.663917219809917  1.0000
  O   O7        1.0  0.837050925560115  0.39519915866833943  0.24484840367873129  1.0000
  O   O8        1.0  0.8373657082973479  0.20141685321090463  0.46211921721644145  1.0000
