data_image0
_chemical_formula_structural       NC12NC2H8C12H16C10H6Zn2C4O8
_chemical_formula_sum              "N2 C40 H30 Zn2 O8"
_cell_length_a       17.80743265337812
_cell_length_b       10.298977702784466
_cell_length_c       10.302835742178797
_cell_angle_alpha    85.54190662743702
_cell_angle_beta     91.5341157365678
_cell_angle_gamma    89.4320624770977

_space_group_name_H-M_alt    "P 1"
_space_group_IT_number       1

loop_
  _space_group_symop_operation_xyz
  'x, y, z'

loop_
  _atom_site_type_symbol
  _atom_site_label
  _atom_site_symmetry_multiplicity
  _atom_site_fract_x
  _atom_site_fract_y
  _atom_site_fract_z
  _atom_site_occupancy
  N   N1        1.0  0.707358090515907  0.406779853156757  0.6013659994066887  1.0000
  C   C1        1.0  0.656536645539571  0.4363395790927955  0.5326811021353655  1.0000
  C   C2        1.0  0.5933097533502545  0.473109732587603  0.44724573570450477  1.0000
  C   C3        1.0  0.6050334431051199  0.5271320792570049  0.3206516345754211  1.0000
  C   C4        1.0  0.5437139798372257  0.5623985650328271  0.23761191290787753  1.0000
  C   C5        1.0  0.4705165088401841  0.5439061755532539  0.28050652946443333  1.0000
  C   C6        1.0  0.45781605378102547  0.4897650275885339  0.40756865346010795  1.0000
  C   C7        1.0  0.5199928328972068  0.45450179556439996  0.4905918679469403  1.0000
  C   C8        1.0  0.3800504399760002  0.47015848401808547  0.45332295137443834  1.0000
  C   C9        1.0  0.36126466168747856  0.49735111680079824  0.580316654312691  1.0000
  C   C10       1.0  0.2880372434262188  0.4789003057986474  0.6232518075511055  1.0000
  C   C11       1.0  0.2326526527145426  0.43300259019114895  0.5400310247963662  1.0000
  C   C12       1.0  0.15728866588275514  0.41399894128720205  0.5843668075885557  1.0000
  N   N2        1.0  0.0967013574431075  0.3987212856521307  0.6200097269567271  1.0000
  C   C13       1.0  0.2507469503231183  0.4056410445584109  0.4135801620886761  1.0000
  C   C14       1.0  0.3239215102021037  0.4241066349413507  0.3703892025842044  1.0000
  H   H1        1.0  0.6614981455809996  0.5419562560123872  0.28622158203698467  1.0000
  H   H2        1.0  0.552909290653398  0.6044967921495232  0.139852553546558  1.0000
  H   H3        1.0  0.4238752453800478  0.5735426091001494  0.21492851896497434  1.0000
  H   H4        1.0  0.5114959643351548  0.4110181230708172  0.5882272476093167  1.0000
  H   H5        1.0  0.4029401534369321  0.5345358976459946  0.6458565227841122  1.0000
  H   H6        1.0  0.2745939793117048  0.5007508555601621  0.7212213421446358  1.0000
  H   H7        1.0  0.208354528639712  0.36972367974817644  0.34845272224705437  1.0000
  H   H8        1.0  0.33683645033508275  0.40072039932040093  0.27272337286361026  1.0000
  C   C15       1.0  0.9020478147882106  0.02134520715738697  0.6108198002699212  1.0000
  C   C16       1.0  0.9038285263588735  0.009507493188311233  0.7476247669718434  1.0000
  C   C17       1.0  0.9049032638710534  0.886283262415548  0.8168565995300439  1.0000
  C   C18       1.0  0.9037871488868858  0.7742457175534692  0.7473217391702212  1.0000
  C   C19       1.0  0.9020188199075345  0.7841457659052401  0.6105674271873684  1.0000
  C   C20       1.0  0.901215963248753  0.9081461124730986  0.5431242754856436  1.0000
  C   C21       1.0  0.9066601295644044  0.8732888526437822  0.9647885781355539  1.0000
  C   C22       1.0  0.8332150126586001  0.9265582199814862  0.01978876515817307  1.0000
  C   C23       1.0  0.8436534074659973  0.9720642189744302  0.15821968009820708  1.0000
  C   C24       1.0  0.906207760583177  0.8951943464481172  0.23613847930672438  1.0000
  C   C25       1.0  0.9828556122189284  0.911999782330453  0.17091204787847003  1.0000
  C   C26       1.0  0.976531887593335  0.9381922446007595  0.021504733900749917  1.0000
  H   H9        1.0  0.8983611460965145  0.251013393584433  0.3525692291879243  1.0000
  H   H10       1.0  0.9040922760867544  0.09624680224655924  0.8006352502955683  1.0000
  H   H11       1.0  0.904319604594362  0.6790876132223748  0.800120068208549  1.0000
  H   H12       1.0  0.8998493494196881  0.9164838099717814  0.4376441878921662  1.0000
  H   H13       1.0  0.901099912113929  0.4604788513387463  0.557915160283242  1.0000
  H   H14       1.0  0.9110551284727465  0.7679847695478209  0.9985673028844868  1.0000
  H   H15       1.0  0.7904833453374615  0.8484634441652451  0.021234312465569727  1.0000
  H   H16       1.0  0.8097995988041972  0.009910183595989386  0.9558067346069206  1.0000
  H   H17       1.0  0.8579057829134628  0.07725441424737722  0.15178461608596827  1.0000
  H   H18       1.0  0.790015665655745  0.9609000332960227  0.21046245164272193  1.0000
  H   H19       1.0  0.8913122065901962  0.7902925299907905  0.24469571568704962  1.0000
  H   H20       1.0  0.9102623069671318  0.9279922942413008  0.33631801457044375  1.0000
  H   H21       1.0  0.01727616934250742  0.8224136774244346  0.19578699934166566  1.0000
  H   H22       1.0  0.013165645348260036  0.9941536561053941  0.21173924895101293  1.0000
  H   H23       1.0  0.9733758653692075  0.04519972886176071  0.9970115534562631  1.0000
  H   H24       1.0  0.028168139100546385  0.9010516780692814  0.9777593200926105  1.0000
  C   C27       1.0  0.9020332972430665  0.40274547616520606  0.2294460212027567  1.0000
  C   C28       1.0  0.8654430390115825  0.5247087904419179  0.21717509419843162  1.0000
  C   C29       1.0  0.8472388994284363  0.5853876861570304  0.09396664373573493  1.0000
  C   C30       1.0  0.8654432293861389  0.5247088462903229  0.9818725501076062  1.0000
  C   C31       1.0  0.9020333330312802  0.40274555724621086  0.9919412168862687  1.0000
  C   C32       1.0  0.9201377603431264  0.34239931493750797  0.11622030085521917  1.0000
  C   C33       1.0  0.8097303286265128  0.7104117969182397  0.08251663784078556  1.0000
  C   C34       1.0  0.778327350833357  0.8150841917827611  0.07293037220827459  1.0000
  C   C35       1.0  0.741554784272574  0.9376545370127074  0.06170503144852413  1.0000
  C   C36       1.0  0.7101565262645876  0.04231087357753793  0.05212036584331048  1.0000
  H   H25       1.0  0.9158893934019314  0.35656028375797644  0.5614150417111654  1.0000
  H   H26       1.0  0.8510088800094963  0.5728210297161238  0.30318702812573517  1.0000
  H   H27       1.0  0.8510090991882069  0.5728211673225898  0.8870481609349468  1.0000
  H   H28       1.0  0.9483556193714261  0.24834261719853945  0.12483434468328514  1.0000
  H   H29       1.0  0.915889180811482  0.3565600288912001  0.6684316781999686  1.0000
  H   H30       1.0  0.6825862318750189  0.13420786129603668  0.04370425243576337  1.0000
  Zn  Zn1       1.0  0.8197141505445363  0.4044508570393799  0.606753662149002  1.0000
  Zn  Zn2       1.0  0.9843452953238241  0.4010396873007298  0.6146326574007484  1.0000
  C   C37       1.0  0.9020318529463265  0.39757139366503  0.8478149473000203  1.0000
  C   C38       1.0  0.9020293906267411  0.4079207522011199  0.3735715851719008  1.0000
  C   C39       1.0  0.9020204368585703  0.6399603407193433  0.6054414472597851  1.0000
  C   C40       1.0  0.9020407505967041  0.16553024585938458  0.6159451522564008  1.0000
  O   O1        1.0  0.9645047412072816  0.40835743469525587  0.4249314805539868  1.0000
  O   O2        1.0  0.9645077319850949  0.394544732452359  0.8024346536034774  1.0000
  O   O3        1.0  0.964497671134654  0.5902768900762205  0.6067162967337916  1.0000
  O   O4        1.0  0.9645147458799057  0.21262528752649512  0.6206497373883364  1.0000
  O   O5        1.0  0.839544643807925  0.5928652579790936  0.6007365794658694  1.0000
  O   O6        1.0  0.839554704595629  0.39713466080813187  0.7964548665957472  1.0000
  O   O7        1.0  0.8395517138694104  0.41094731778957216  0.4189501326595837  1.0000
  O   O8        1.0  0.8395617185393213  0.21521516133118967  0.6146684868337262  1.0000
