data_image0
_chemical_formula_structural       NC12NC2H8C6NCOCH9C10H6Zn2C4O8
_chemical_formula_sum              "N3 C36 H23 O9 Zn2"
_cell_length_a       17.80743265337812
_cell_length_b       10.300268703208216
_cell_length_c       10.302835742178797
_cell_angle_alpha    85.56039860299246
_cell_angle_beta     91.5341157365678
_cell_angle_gamma    89.41550465668445

_space_group_name_H-M_alt    "P 1"
_space_group_IT_number       1

loop_
  _space_group_symop_operation_xyz
  'x, y, z'

loop_
  _atom_site_type_symbol
  _atom_site_label
  _atom_site_symmetry_multiplicity
  _atom_site_fract_x
  _atom_site_fract_y
  _atom_site_fract_z
  _atom_site_occupancy
  N   N1        1.0  0.7071300391174757  0.406573024407215  0.6018103025910062  1.0000
  C   C1        1.0  0.6563038022493437  0.43612840438881095  0.5331347411658933  1.0000
  C   C2        1.0  0.5930709492944489  0.4728931518317403  0.4477109878500829  1.0000
  C   C3        1.0  0.6047858815513469  0.5269075559830687  0.3211339485950344  1.0000
  C   C4        1.0  0.5434607012756487  0.5621688567804903  0.23810536513926905  1.0000
  C   C5        1.0  0.470266228057735  0.5436791861042771  0.2809941412457264  1.0000
  C   C6        1.0  0.4575745497552794  0.4895459981241328  0.40803916584636135  1.0000
  C   C7        1.0  0.519757045351803  0.4542879506000239  0.4910512431490479  1.0000
  C   C8        1.0  0.3798121143435684  0.46994233716312794  0.4537872714273834  1.0000
  C   C9        1.0  0.361021927889889  0.49713097200812295  0.5807895626129791  1.0000
  C   C10       1.0  0.2877975006675199  0.4786828736963471  0.6237188885330232  1.0000
  C   C11       1.0  0.23242035037959263  0.4327919061007033  0.5404836099059187  1.0000
  C   C12       1.0  0.15705944420658643  0.4137910511669223  0.584813390776981  1.0000
  N   N2        1.0  0.09647461240941031  0.39851564169595677  0.6204514850042235  1.0000
  C   C13       1.0  0.250519083535586  0.40543438323972714  0.4140241056031524  1.0000
  C   C14       1.0  0.3236906499798132  0.42389725875938544  0.370838978084822  1.0000
  H   H1        1.0  0.6612481808976738  0.5417295532460915  0.2867085779753238  1.0000
  H   H2        1.0  0.5526491875986043  0.6042608944968664  0.14035930165812593  1.0000
  H   H3        1.0  0.4236201602708238  0.5733112624189609  0.2154254908190374  1.0000
  H   H4        1.0  0.5112672258758599  0.4108106711988553  0.5886728893661297  1.0000
  H   H5        1.0  0.40269139165902074  0.5343102858417561  0.6463411751511781  1.0000
  H   H6        1.0  0.2743506943865336  0.5005302109282865  0.7216953241841824  1.0000
  H   H7        1.0  0.20813248437320492  0.3695222991019689  0.3488853219826715  1.0000
  H   H8        1.0  0.33660938122746115  0.4005144614488856  0.27316576229103906  1.0000
  C   C15       1.0  0.9018822457389732  0.021195046098730463  0.6111423716564883  1.0000
  C   C16       1.0  0.9145477090169829  0.030319167287669035  0.47679459648877254  1.0000
  C   C17       1.0  0.9219546685053527  0.9175952262272493  0.40942305911251076  1.0000
  C   C18       1.0  0.9143777545126655  0.7951631655502631  0.4768188473328909  1.0000
  C   C19       1.0  0.9017295857419305  0.7838835257170365  0.6111309326684617  1.0000
  C   C20       1.0  0.8958314255990533  0.8974949673027157  0.6776760254492258  1.0000
  N   N3        1.0  0.9337521376625354  0.9253706737972266  0.271492350951428  1.0000
  C   C21       1.0  0.9778562546162926  0.023565695669197195  0.20384490089692853  1.0000
  O   O1        1.0  0.020276420509072857  0.09568318694852906  0.26582690002569853  1.0000
  C   C22       1.0  0.9778873203823741  0.03445118693379001  0.05841335753993948  1.0000
  H   H9        1.0  0.8959744181611095  0.34519735871128865  0.6618642752883557  1.0000
  H   H10       1.0  0.9171640978641913  0.1251143195200295  0.42410473380606506  1.0000
  H   H11       1.0  0.9190413353370767  0.7087044766333233  0.4238994467612287  1.0000
  H   H12       1.0  0.8860834070442152  0.8896480669468604  0.7813010740496982  1.0000
  H   H13       1.0  0.8958260828777777  0.45224847712504146  0.6616650596315437  1.0000
  H   H14       1.0  0.9130588755537506  0.8503749388744499  0.21833775738939365  1.0000
  H   H15       1.0  0.9203885823544944  0.018606084477035267  0.018853309721420297  1.0000
  H   H16       1.0  0.9965127813604008  0.13272571571833525  0.02144932862643323  1.0000
  H   H17       1.0  0.016664299985889253  0.9599232365384698  0.024532038968807734  1.0000
  C   C23       1.0  0.9018058998526609  0.4025392405611703  0.22988905021006611  1.0000
  C   C24       1.0  0.8651958702942593  0.5244846234467515  0.21765664287090503  1.0000
  C   C25       1.0  0.846981894127946  0.5851545979791386  0.09446735661967143  1.0000
  C   C26       1.0  0.8651960606597622  0.524484679286946  0.9823540987977188  1.0000
  C   C27       1.0  0.901805935627731  0.40253932163025397  0.9923842459191858  1.0000
  C   C28       1.0  0.9199201455966983  0.342201951596633  0.11664427073857642  1.0000
  C   C29       1.0  0.80945305581705  0.7101603273422683  0.08305683708102896  1.0000
  C   C30       1.0  0.7780331097072293  0.8148173329754944  0.07350363012379302  1.0000
  C   C31       1.0  0.741240673414467  0.9373696575669039  0.062317000747750484  1.0000
  C   C32       1.0  0.7098254496930078  0.04201060726137573  0.05276538874611969  1.0000
  H   H18       1.0  0.9156694830377949  0.35636083843144717  0.5618434840523316  1.0000
  H   H19       1.0  0.8507539118746427  0.5725897891235756  0.30368377208343156  1.0000
  H   H20       1.0  0.850754131031046  0.5725899267098096  0.887544904936103  1.0000
  H   H21       1.0  0.9481532520437063  0.2481590823391686  0.1252286086462615  1.0000
  H   H22       1.0  0.9156692704886618  0.3563605836021415  0.668860120460641  1.0000
  H   H23       1.0  0.6822402579927374  0.13389408402504133  0.04437829915788649  1.0000
  Zn  Zn1       1.0  0.8194864766968786  0.4042443707054286  0.6071972297666355  1.0000
  Zn  Zn2       1.0  0.9841181744568102  0.40083370248659356  0.6150751476688778  1.0000
  C   C33       1.0  0.9018052943202435  0.3973659187692251  0.8482563421772096  1.0000
  C   C34       1.0  0.9018011542785309  0.4077137557133761  0.374016248686285  1.0000
  C   C35       1.0  0.9017545848503589  0.6397192291155569  0.6059593958214597  1.0000
  C   C36       1.0  0.901851807883396  0.16535888630887396  0.6163132615938296  1.0000
  O   O2        1.0  0.9642764340689949  0.4081503740052179  0.42537628198577293  1.0000
  O   O3        1.0  0.9642816640074385  0.39433970254483897  0.802875092570464  1.0000
  O   O4        1.0  0.9642398732511679  0.5900430830737518  0.607218553774665  1.0000
  O   O5        1.0  0.9643181686457543  0.2124470039298687  0.6210327207495379  1.0000
  O   O6        1.0  0.8392864263272156  0.5926310704274609  0.6012396539908  1.0000
  O   O7        1.0  0.8393282167677862  0.39692925012202607  0.7968961235396279  1.0000
  O   O8        1.0  0.8393229868882748  0.41073987632760267  0.4193957520539695  1.0000
  O   O9        1.0  0.8393647214638266  0.21503649696399751  0.6150522881545926  1.0000
