data_image0
_chemical_formula_structural       NC12NC2H8C6OCH8C10H6Zn2C4O8
_chemical_formula_sum              "N2 C35 H22 O9 Zn2"
_cell_length_a       17.80743265337812
_cell_length_b       9.273888216677433
_cell_length_c       10.302835742178797
_cell_angle_alpha    85.76055252321395
_cell_angle_beta     91.5341157365678
_cell_angle_gamma    88.85715842325122

_space_group_name_H-M_alt    "P 1"
_space_group_IT_number       1

loop_
  _space_group_symop_operation_xyz
  'x, y, z'

loop_
  _atom_site_type_symbol
  _atom_site_label
  _atom_site_symmetry_multiplicity
  _atom_site_fract_x
  _atom_site_fract_y
  _atom_site_fract_z
  _atom_site_occupancy
  N   N1        1.0  0.6992744902446519  0.5620897050891842  0.6063554321949889  1.0000
  C   C1        1.0  0.6482831899721523  0.594912853264308  0.5377753745440705  1.0000
  C   C2        1.0  0.5848450101232228  0.6357424671515832  0.45247042099129153  1.0000
  C   C3        1.0  0.596258278133555  0.6957289329711422  0.3260679211757811  1.0000
  C   C4        1.0  0.534736167540748  0.7348888727737115  0.24315327932087683  1.0000
  C   C5        1.0  0.4616449570110268  0.7143549056688228  0.28598230883181497  1.0000
  C   C6        1.0  0.44925560634918493  0.654236522776418  0.412852410160798  1.0000
  C   C7        1.0  0.5116350140936592  0.6150801959428593  0.49575055637508725  1.0000
  C   C8        1.0  0.3716026551335255  0.6324653978949706  0.4585371694539033  1.0000
  C   C9        1.0  0.3526606232753743  0.6626601235507503  0.5856273166320289  1.0000
  C   C10       1.0  0.27953922656431474  0.6421723252272726  0.6284970302914088  1.0000
  C   C11       1.0  0.2244183720623248  0.5912074575710433  0.545113461890681  1.0000
  C   C12       1.0  0.149163583482908  0.5701057875084732  0.589381844351023  1.0000
  N   N2        1.0  0.0886640630940763  0.5531414639635415  0.6249705783853747  1.0000
  C   C13       1.0  0.24266989384297163  0.5608251709237624  0.41856555585911037  1.0000
  C   C14       1.0  0.3157383472468796  0.5813293802859147  0.375440088351773  1.0000
  H   H1        1.0  0.652637798326669  0.7121897131309105  0.29169044561546764  1.0000
  H   H2        1.0  0.5436895746650411  0.7816347847470253  0.1455432299416659  1.0000
  H   H3        1.0  0.414833397479532  0.7472632300489896  0.22050941001200886  1.0000
  H   H4        1.0  0.5033880102321685  0.5667958840874736  0.5932317122896551  1.0000
  H   H5        1.0  0.3941224448447694  0.7039501400476  0.651299068542325  1.0000
  H   H6        1.0  0.26597040541286787  0.6664351967465152  0.7265440623335826  1.0000
  H   H7        1.0  0.20048385954794823  0.5209424944139307  0.35331072772908545  1.0000
  H   H8        1.0  0.328787668733263  0.5553612817079454  0.2776913145582025  1.0000
  C   C15       1.0  0.8961789886352798  0.13410270261025414  0.614442210168193  1.0000
  C   C16       1.0  0.8786336826142214  0.21776866154533492  0.4976431878119518  1.0000
  C   C17       1.0  0.8546964015820082  0.15359408869686297  0.3856319867652729  1.0000
  C   C18       1.0  0.8481654733580132  0.0027632862579285433  0.3899962445814824  1.0000
  C   C19       1.0  0.8664970235282127  0.9178841549979926  0.5043355627921087  1.0000
  C   C20       1.0  0.8917667974014846  0.9811172297907107  0.6168953021713057  1.0000
  O   O1        1.0  0.8376064745217827  0.24341668480019996  0.27267156807565396  1.0000
  C   C21       1.0  0.8125298605751342  0.19306831988276563  0.15199789538381303  1.0000
  H   H9        1.0  0.9022984131813858  0.21064670090321003  0.9342196836976882  1.0000
  H   H10       1.0  0.8818070153541551  0.33457130690472914  0.4939467678084424  1.0000
  H   H11       1.0  0.8296201708288339  0.9497524959790872  0.3051449212802966  1.0000
  H   H12       1.0  0.8625927318196267  0.8015054574974552  0.5037166156754489  1.0000
  H   H13       1.0  0.8990367109856701  0.6820195458001305  0.8315287134263047  1.0000
  H   H14       1.0  0.7586131220127873  0.13618331712175213  0.1643826923947309  1.0000
  H   H15       1.0  0.8556660433906363  0.11946873638071209  0.1151313651873147  1.0000
  H   H16       1.0  0.8033919580264005  0.2869637118946389  0.07978426816067619  1.0000
  C   C22       1.0  0.8939728791995565  0.557609928988603  0.23442114524701463  1.0000
  C   C23       1.0  0.8566817986765407  0.6930381107348049  0.2225827861088392  1.0000
  C   C24       1.0  0.8381289876671145  0.7604160150316726  0.0995895457738396  1.0000
  C   C25       1.0  0.8566819887301823  0.6930381727489281  0.9872802422160909  1.0000
  C   C26       1.0  0.893972914521865  0.5576100190210285  0.996916341218097  1.0000
  C   C27       1.0  0.9124241017760013  0.49060149338731884  0.1209813948827676  1.0000
  C   C28       1.0  0.7999020067078413  0.8992429081448858  0.08858296348647121  1.0000
  C   C29       1.0  0.7678975632357301  0.015471236307244673  0.07936793993408808  1.0000
  C   C30       1.0  0.7304206862786008  0.15157346580909925  0.0685773200000519  1.0000
  C   C31       1.0  0.6984210548654255  0.2677839628200016  0.059363839520917505  1.0000
  H   H17       1.0  0.9080943634595045  0.5063258468168228  0.5662263605141034  1.0000
  H   H18       1.0  0.8419711784288836  0.7464619876053606  0.30876535994374055  1.0000
  H   H19       1.0  0.8419713968168837  0.7464621404037128  0.8926264932410013  1.0000
  H   H20       1.0  0.9411824268520981  0.3861608455467671  0.12926184737413315  1.0000
  H   H21       1.0  0.9080941523335637  0.5063255638125084  0.6732429960989692  1.0000
  H   H22       1.0  0.6703227044952556  0.3698264665718507  0.05127365759628133  1.0000
  Zn  Zn1       1.0  0.81164393308766  0.5595035855552832  0.6117348346757079  1.0000
  Zn  Zn2       1.0  0.976294679038064  0.5557158193890985  0.6196017315155371  1.0000
  C   C32       1.0  0.8940011660754718  0.5518646227925621  0.8527717204012948  1.0000
  C   C33       1.0  0.8939392345523135  0.5633565604878779  0.3785650643922611  1.0000
  C   C34       1.0  0.8925969411884136  0.8210135432660199  0.6112579023910802  1.0000
  C   C35       1.0  0.8953434122815133  0.29420590858016404  0.620078943916408  1.0000
  O   O2        1.0  0.9564120758797393  0.5638414531503311  0.42992650855822334  1.0000
  O   O3        1.0  0.9564944368328839  0.5485038152642931  0.8073806920310505  1.0000
  O   O4        1.0  0.9553596651622597  0.765844991776762  0.6123565393346626  1.0000
  O   O5        1.0  0.9575467913124701  0.34650028824721635  0.6249505612563566  1.0000
  O   O6        1.0  0.8303917646260265  0.768719117991314  0.6063860022434782  1.0000
  O   O7        1.0  0.8315265272672819  0.5513796742072496  0.8014100907345234  1.0000
  O   O8        1.0  0.8314441666258123  0.5667172618349225  0.42395434621449435  1.0000
  O   O9        1.0  0.8325788821092095  0.34937608661660224  0.6189784962194724  1.0000
