data_image0
_chemical_formula_structural       NC12NC2H8C7F3H5C7NC2OH7Zn2C4O8
_chemical_formula_sum              "N3 C34 H20 F3 O9 Zn2"
_cell_length_a       17.80743265337812
_cell_length_b       10.29932413504667
_cell_length_c       10.300337369960102
_cell_angle_alpha    85.56717638700519
_cell_angle_beta     91.53453705670806
_cell_angle_gamma    89.4159334836852

_space_group_name_H-M_alt    "P 1"
_space_group_IT_number       1

loop_
  _space_group_symop_operation_xyz
  'x, y, z'

loop_
  _atom_site_type_symbol
  _atom_site_label
  _atom_site_symmetry_multiplicity
  _atom_site_fract_x
  _atom_site_fract_y
  _atom_site_fract_z
  _atom_site_occupancy
  N   N1        1.0  0.7071328608963461  0.4066906534963364  0.6016398025552321  1.0000
  C   C1        1.0  0.6563065157039347  0.43624855748368474  0.5329511152995081  1.0000
  C   C2        1.0  0.5930735280171122  0.47301644460169046  0.44751103529206837  1.0000
  C   C3        1.0  0.6047882577490709  0.5270354629623422  0.320909748367884  1.0000
  C   C4        1.0  0.5434629435671439  0.5622997765046445  0.23786523919688185  1.0000
  C   C5        1.0  0.4702685377995551  0.5438085269242832  0.2807622087137984  1.0000
  C   C6        1.0  0.45757706327626263  0.48967071433505205  0.4078315803586612  1.0000
  C   C7        1.0  0.5197596927289292  0.45440965435580627  0.49085957975902494  1.0000
  C   C8        1.0  0.3798147005530312  0.4700653789752576  0.453588439857318  1.0000
  C   C9        1.0  0.361025225645518  0.4972560823828942  0.5806248416817386  1.0000
  C   C10       1.0  0.2878008663061047  0.47880640853452894  0.6235623758564124  1.0000
  C   C11       1.0  0.2324230743400854  0.43291177479930254  0.5403013677235731  1.0000
  C   C12       1.0  0.1570622385709939  0.41390929696936807  0.5846396305185952  1.0000
  N   N2        1.0  0.09647746337353941  0.3986325827991335  0.6202845436256881  1.0000
  C   C13       1.0  0.2505210972102392  0.40555216875250566  0.4138078643008787  1.0000
  C   C14       1.0  0.3236925947727033  0.4240166213657146  0.3706144681818242  1.0000
  H   H1        1.0  0.6612505028363982  0.5418587259915812  0.2864777988866465  1.0000
  H   H2        1.0  0.5526512758731281  0.6043954087674162  0.1401004967965116  1.0000
  H   H3        1.0  0.4236223754197866  0.5734431294186122  0.2151811961967529  1.0000
  H   H4        1.0  0.5112700180868182  0.4109286665629799  0.5884997081897059  1.0000
  H   H5        1.0  0.4026952012495998  0.5344383689071059  0.6461968421535911  1.0000
  H   H6        1.0  0.2743546144004247  0.500655413382276  0.7215652311702663  1.0000
  H   H7        1.0  0.20813399588913004  0.3696372156723917  0.3486489453102468  1.0000
  H   H8        1.0  0.3366107633476808  0.4006320296609345  0.27291472181804677  1.0000
  C   C15       1.0  0.901882700190002  0.021280944591467232  0.6109278198225068  1.0000
  C   C16       1.0  0.9768567592362974  0.021803208021658582  0.5716660540923346  1.0000
  C   C17       1.0  0.014222285952268043  0.905125986851126  0.5495715600332092  1.0000
  C   C18       1.0  0.9766626513911927  0.786550271211133  0.5717706206675608  1.0000
  C   C19       1.0  0.9017348305255879  0.7840321303917882  0.6110080596670788  1.0000
  C   C20       1.0  0.8646880789355289  0.9019820792034253  0.6298607080253884  1.0000
  C   C21       1.0  0.09555349235447186  0.9063741116246785  0.511982127602695  1.0000
  F   F1        1.0  0.11178145487729951  0.020527889073769456  0.4387549964521471  1.0000
  F   F2        1.0  0.14076445617390965  0.8968183290425582  0.6235890136255091  1.0000
  F   F3        1.0  0.11157482695037402  0.8028878957929778  0.43873702352378685  1.0000
  H   H9        1.0  0.7608162804240085  0.2273521781849912  0.6872682850089997  1.0000
  H   H10       1.0  0.0063493342408953435  0.11313467037656033  0.5584450549977527  1.0000
  H   H11       1.0  0.006021909825425054  0.6960939101436451  0.5586248900037067  1.0000
  H   H12       1.0  0.8069014434712766  0.9007750984194008  0.6601187537756934  1.0000
  H   H13       1.0  0.8733295218360034  0.4554322754335882  0.6282990882066906  1.0000
  C   C22       1.0  0.901807110025455  0.40265703306696987  0.22962774321964896  1.0000
  C   C23       1.0  0.9793115404352324  0.37543116588316305  0.23430518415184176  1.0000
  C   C24       1.0  0.018415327820711758  0.3616945103595184  0.1195766254411399  1.0000
  C   C25       1.0  0.9793183662384609  0.375429417167356  0.9990132194497634  1.0000
  C   C26       1.0  0.9018103960378143  0.4026560423522101  0.9923080929602546  1.0000
  C   C27       1.0  0.8634870926194397  0.41611772388056045  0.10815282840362395  1.0000
  C   C28       1.0  0.09999397654234521  0.33303496773346675  0.12624307669596746  1.0000
  N   N3        1.0  0.14182307459231058  0.3183388890665313  0.020736938571679575  1.0000
  C   C29       1.0  0.2113371278941072  0.29391689378073904  0.07196866399979074  1.0000
  C   C30       1.0  0.20936109536195313  0.29461174335279283  0.2052914575398559  1.0000
  O   O1        1.0  0.13999283621445868  0.3189827383602941  0.23571499520809303  1.0000
  H   H14       1.0  0.8722826296740931  0.4130403542539527  0.5552724589034668  1.0000
  H   H15       1.0  0.009398676172728715  0.3648613630732027  0.32739074509816346  1.0000
  H   H16       1.0  0.009341689479118065  0.36488290249336375  0.9102984552655862  1.0000
  H   H17       1.0  0.8037048078094738  0.43711805194819986  0.10376145613914112  1.0000
  H   H18       1.0  0.8722692192233803  0.4130404554683522  0.6623237771217649  1.0000
  H   H19       1.0  0.26031659330537815  0.27670892871474484  0.015532015841817737  1.0000
  H   H20       1.0  0.2560574768782524  0.27820646492483503  0.27414677304850477  1.0000
  Zn  Zn1       1.0  0.8194893069082532  0.40436180096134167  0.60702775808342  1.0000
  Zn  Zn2       1.0  0.9841210169674403  0.4009508415370333  0.614907179236408  1.0000
  C   C31       1.0  0.9018091097925724  0.3974824618007349  0.8481445856754217  1.0000
  C   C32       1.0  0.9018030115391187  0.4078317821197277  0.373790565316676  1.0000
  C   C33       1.0  0.9017588805959336  0.6398560415531918  0.6058179249680615  1.0000
  C   C34       1.0  0.9018531848612843  0.16545664318069475  0.6161172924046121  1.0000
  O   O2        1.0  0.9642785131302737  0.4082683679334824  0.42516312402365375  1.0000
  O   O3        1.0  0.9642852670062138  0.39445605695608665  0.8027519513852166  1.0000
  O   O4        1.0  0.9642438640823576  0.5901758052864785  0.6070714181948524  1.0000
  O   O5        1.0  0.9643198598742568  0.2125486300576478  0.620843557158947  1.0000
  O   O6        1.0  0.8392904078207132  0.5927640136061345  0.6010913774651907  1.0000
  O   O7        1.0  0.8393318104383195  0.39704582562772517  0.7967718415792884  1.0000
  O   O8        1.0  0.8393250566143707  0.41085809134867324  0.41918145293224973  1.0000
  O   O9        1.0  0.8393664033575038  0.2151383441836885  0.6148619834269238  1.0000
