data_image0
_chemical_formula_structural       NC12NC2H8C6NCOCH9C6NCOCH9Zn2C4O8
_chemical_formula_sum              "N4 C34 H26 O10 Zn2"
_cell_length_a       17.80743265337812
_cell_length_b       10.300268703208216
_cell_length_c       10.300272075376752
_cell_angle_alpha    85.54063846004603
_cell_angle_beta     91.53227337963534
_cell_angle_gamma    89.41550465668445

_space_group_name_H-M_alt    "P 1"
_space_group_IT_number       1

loop_
  _space_group_symop_operation_xyz
  'x, y, z'

loop_
  _atom_site_type_symbol
  _atom_site_label
  _atom_site_symmetry_multiplicity
  _atom_site_fract_x
  _atom_site_fract_y
  _atom_site_fract_z
  _atom_site_occupancy
  N   N1        1.0  0.7071526261332722  0.4070563336878823  0.6014258524491096  1.0000
  C   C1        1.0  0.6563274986825488  0.4366354526057994  0.5327314077999363  1.0000
  C   C2        1.0  0.5930960257032531  0.47342972829717955  0.4472841661304754  1.0000
  C   C3        1.0  0.6048130027453408  0.5274878860664223  0.3206723228994053  1.0000
  C   C4        1.0  0.5434891637525381  0.5627778871789864  0.23762090967257898  1.0000
  C   C5        1.0  0.4702939976891077  0.5442733912300886  0.2805214785966281  1.0000
  C   C6        1.0  0.4576002670414067  0.4900962878645243  0.4076014358518414  1.0000
  C   C7        1.0  0.5197814216216825  0.4548095457309198  0.4906363383870105  1.0000
  C   C8        1.0  0.379837092593222  0.4704768132524524  0.45336212045966917  1.0000
  C   C9        1.0  0.361044854484633  0.49762154748359655  0.5803993325497436  1.0000
  C   C10       1.0  0.2878197337616863  0.4791586098823679  0.6233404624370693  1.0000
  C   C11       1.0  0.23244392809570613  0.43329641404975017  0.5400822972054231  1.0000
  C   C12       1.0  0.15708230579851262  0.41428023573421013  0.5844242671167692  1.0000
  N   N2        1.0  0.09649689828675441  0.39899250731845703  0.620072160493875  1.0000
  C   C13       1.0  0.2505447041381738  0.4059826041786292  0.41358802124437366  1.0000
  C   C14       1.0  0.32371696821531815  0.4244604074101388  0.37039101942284036  1.0000
  H   H1        1.0  0.6612758582153402  0.5423217830746239  0.28623748658369874  1.0000
  H   H2        1.0  0.5526792291115028  0.6049037125707517  0.13984796966098711  1.0000
  H   H3        1.0  0.4236489891290992  0.5739281325217283  0.21493479923079928  1.0000
  H   H4        1.0  0.5112900251196256  0.4112985216614147  0.588284826924423  1.0000
  H   H5        1.0  0.40271325930209995  0.5347782022297245  0.6459689693422974  1.0000
  H   H6        1.0  0.2743713447231502  0.5009720798066564  0.7213438379624519  1.0000
  H   H7        1.0  0.20815915725842452  0.3700930364266757  0.3484313268821295  1.0000
  H   H8        1.0  0.3366372773221594  0.40111137259392216  0.27269094712901243  1.0000
  C   C15       1.0  0.9019046820001247  0.021675129582786612  0.6107604874863499  1.0000
  C   C16       1.0  0.9145723155954565  0.030845690483515265  0.47637577167937595  1.0000
  C   C17       1.0  0.9219803634354153  0.9181450376001773  0.40898570963714587  1.0000
  C   C18       1.0  0.9144023606993795  0.7956896803633718  0.47640002919157376  1.0000
  C   C19       1.0  0.9017520221878731  0.7843636131551839  0.6107490453530275  1.0000
  C   C20       1.0  0.8958527870441823  0.8979520522391398  0.6773124355582463  1.0000
  N   N3        1.0  0.9337800607903096  0.9259681633868277  0.2710170756635484  1.0000
  C   C21       1.0  0.9778852705528794  0.024186568810032893  0.2033510250773607  1.0000
  O   O1        1.0  0.020304435159213874  0.09628263490259004  0.2653500669496187  1.0000
  C   C22       1.0  0.9779186856887018  0.03512233108916396  0.05787949345727483  1.0000
  H   H9        1.0  0.895996035036708  0.3456599092620074  0.6614963377544172  1.0000
  H   H10       1.0  0.9171895556195565  0.1256590559094639  0.4236714212449546  1.0000
  H   H11       1.0  0.9190667964087459  0.709249283983897  0.42346607775381906  1.0000
  H   H12       1.0  0.8861030944814366  0.8900693320315212  0.7809659771913253  1.0000
  H   H13       1.0  0.8958477029715998  0.4527110965382153  0.6612970673207128  1.0000
  H   H14       1.0  0.9130876573658984  0.8509908023001809  0.21784786656610078  1.0000
  H   H15       1.0  0.9204205867324923  0.01929090327061478  0.01830856809758541  1.0000
  H   H16       1.0  0.9965447438010847  0.13340963715154097  0.020905300811202565  1.0000
  H   H17       1.0  0.016696212627016482  0.9606060923776998  0.023988858784217193  1.0000
  C   C23       1.0  0.9018344950597766  0.4031511110759005  0.22940233556248946  1.0000
  C   C24       1.0  0.8249407087578238  0.4354635635854234  0.22228054972476197  1.0000
  C   C25       1.0  0.7864201714940005  0.45349554645794354  0.10128811239802515  1.0000
  C   C26       1.0  0.8249483615819853  0.4351673318069289  0.9871469588947464  1.0000
  C   C27       1.0  0.9018222448226949  0.40288756393990277  0.9921072443756898  1.0000
  C   C28       1.0  0.9399232120454307  0.3875325442621198  0.11372227872923824  1.0000
  N   N4        1.0  0.7074307294693296  0.4845814091491887  0.09252337596997595  1.0000
  C   C29       1.0  0.6701205813169737  0.566193692678532  0.17818803443524533  1.0000
  O   O2        1.0  0.7073969243793039  0.6348779252720633  0.25223566263909913  1.0000
  C   C30       1.0  0.5863726281317235  0.5774796236101518  0.17306474028618424  1.0000
  H   H18       1.0  0.930823094420843  0.3890015331660237  0.5596679266644229  1.0000
  H   H19       1.0  0.7946960650873969  0.4440644218711314  0.31097518557077763  1.0000
  H   H20       1.0  0.7946478942180115  0.44733165129638985  0.8943265107671237  1.0000
  H   H21       1.0  0.99923361309454  0.3626459953367369  0.11840371468835409  1.0000
  H   H22       1.0  0.9307027977516857  0.38875985025746007  0.6667145621019088  1.0000
  H   H23       1.0  0.6760486137424945  0.4528461185972932  0.01406382835660791  1.0000
  H   H24       1.0  0.5614457435385409  0.4809478740033748  0.15949570923756573  1.0000
  H   H25       1.0  0.5657813208118956  0.6125935166986551  0.26512349519076284  1.0000
  H   H26       1.0  0.5683084800611305  0.6472576064795597  0.09033679365707536  1.0000
  Zn  Zn1       1.0  0.8195089766897127  0.40472581789835305  0.6068142608292713  1.0000
  Zn  Zn2       1.0  0.984140547186043  0.40131242653626864  0.6146943448658095  1.0000
  C   C31       1.0  0.9018239001304854  0.3977640395677171  0.8479396555262497  1.0000
  C   C32       1.0  0.9018274211869082  0.40827580608370884  0.37356916365549653  1.0000
  C   C33       1.0  0.9017771048397465  0.6402011041879272  0.6055760865258188  1.0000
  C   C34       1.0  0.901874160611553  0.16583718238232303  0.6159327992260217  1.0000
  O   O3        1.0  0.9643018712831712  0.40869467086127775  0.4249433190530987  1.0000
  O   O4        1.0  0.96430100292779  0.3947535101840678  0.802545927764442  1.0000
  O   O5        1.0  0.9642623728995241  0.590524522895651  0.6068355907006096  1.0000
  O   O6        1.0  0.9643404451335419  0.21292366863783596  0.6206535560573925  1.0000
  O   O7        1.0  0.8393090225615385  0.5931145769630248  0.6008550469417715  1.0000
  O   O8        1.0  0.8393476522752233  0.3973451244988562  0.7965653147395926  1.0000
  O   O9        1.0  0.8393485207147524  0.4112862404608173  0.41896114469809254  1.0000
  O   O10       1.0  0.8393870945623428  0.21551522891547314  0.6146714790660084  1.0000
