data_image0
_chemical_formula_structural       NC12NC2H8C6OCH8C6NCSNH8Zn2C4O8
_chemical_formula_sum              "N4 C32 H24 O9 S1 Zn2"
_cell_length_a       17.80743265337812
_cell_length_b       9.273888216677433
_cell_length_c       9.275081717742442
_cell_angle_alpha    86.332636786614
_cell_angle_beta     91.71745222805815
_cell_angle_gamma    88.85715842325122

_space_group_name_H-M_alt    "P 1"
_space_group_IT_number       1

loop_
  _space_group_symop_operation_xyz
  'x, y, z'

loop_
  _atom_site_type_symbol
  _atom_site_label
  _atom_site_symmetry_multiplicity
  _atom_site_fract_x
  _atom_site_fract_y
  _atom_site_fract_z
  _atom_site_occupancy
  N   N1        1.0  0.6968698171289336  0.5467000549998029  0.45285828250194604  1.0000
  C   C1        1.0  0.6457601849483441  0.5787658916517888  0.37672476135080424  1.0000
  C   C2        1.0  0.5821748151105285  0.6186535053932622  0.2820242506182833  1.0000
  C   C3        1.0  0.593369981102536  0.6772441416824497  0.14169967634851277  1.0000
  C   C4        1.0  0.5317048048997637  0.7154884769220542  0.04965274819438892  1.0000
  C   C5        1.0  0.45868749399855346  0.6954274595154373  0.09719900195742048  1.0000
  C   C6        1.0  0.4465170521811198  0.6367100697538219  0.23804267975284632  1.0000
  C   C7        1.0  0.509039497073049  0.5984691653262117  0.33007129542304026  1.0000
  C   C8        1.0  0.3689429280315634  0.6154434296428684  0.2887591957060802  1.0000
  C   C9        1.0  0.3502201846973673  0.6470415783378234  0.42984715537999696  1.0000
  C   C10       1.0  0.2771727578135482  0.6270271789769588  0.4774385742767713  1.0000
  C   C11       1.0  0.22190802858922384  0.5751415285253623  0.3848710716244965  1.0000
  C   C12       1.0  0.14672962317925914  0.5545287025567789  0.4340152098450656  1.0000
  N   N2        1.0  0.0862915096038517  0.5379573760331571  0.4735237160807759  1.0000
  C   C13       1.0  0.239941197459441  0.5433618066651442  0.2443850759794004  1.0000
  C   C14       1.0  0.3129352397439623  0.5633897928422671  0.1965097342971993  1.0000
  H   H1        1.0  0.6496901844560655  0.6933253004293765  0.10353583758336748  1.0000
  H   H2        1.0  0.5404897901272627  0.7611565068156361  0.9412918483420878  1.0000
  H   H3        1.0  0.41176296382645394  0.7276127839094872  0.02451486464600272  1.0000
  H   H4        1.0  0.500960692708282  0.5512613122139587  0.43828910537934607  1.0000
  H   H5        1.0  0.39179532001972994  0.6890567907031204  0.5027520476235239  1.0000
  H   H6        1.0  0.26377311255348307  0.6523727580604464  0.5862845864190427  1.0000
  H   H7        1.0  0.19764256879530803  0.5027585382664166  0.17194302784144755  1.0000
  H   H8        1.0  0.3258158999706055  0.5363422802873765  0.08799483081036419  1.0000
  C   C15       1.0  0.893788268903397  0.11880235268120987  0.4618357447986594  1.0000
  C   C16       1.0  0.8760414312468765  0.2011785307594145  0.3321723828304508  1.0000
  C   C17       1.0  0.8519108797567301  0.1357670477044075  0.20782417671694975  1.0000
  C   C18       1.0  0.8453874818698691  0.9849844386156597  0.21266911744958517  1.0000
  C   C19       1.0  0.863916319562958  0.9013679263472298  0.33960186145084914  1.0000
  C   C20       1.0  0.8893803103732095  0.9658439687108874  0.4645590223563325  1.0000
  O   O1        1.0  0.8346260444047935  0.22434225164065746  0.08242220535490352  1.0000
  C   C21       1.0  0.8093412132819721  0.1726613191226818  0.9484574359020259  1.0000
  H   H9        1.0  0.9004594555783648  0.19887756943386004  0.8168337701508681  1.0000
  H   H10       1.0  0.8792083859747892  0.317940357525782  0.3280688361120576  1.0000
  H   H11       1.0  0.8266957720710824  0.9310366575104679  0.1184722001746592  1.0000
  H   H12       1.0  0.86001095988803  0.7849823939766188  0.3389147429937964  1.0000
  H   H13       1.0  0.8970205645777394  0.6691164249791736  0.7028323326340977  1.0000
  H   H14       1.0  0.7554458441484622  0.11591307841479814  0.9622063045597753  1.0000
  H   H15       1.0  0.852413784502322  0.09865462823267546  0.9075303959923886  1.0000
  H   H16       1.0  0.800078709258814  0.26575927505915753  0.8682901408615593  1.0000
  C   C22       1.0  0.8909264496408404  0.5381131064790774  0.03995884974958219  1.0000
  C   C23       1.0  0.823597845687648  0.5710545983134294  0.1071988140315907  1.0000
  C   C24       1.0  0.7594998970473819  0.6170324183054479  0.025613837605153567  1.0000
  C   C25       1.0  0.7614175913184003  0.6328244947073189  0.874519927169894  1.0000
  C   C26       1.0  0.8273980425129741  0.5953908168982542  0.8060850279210516  1.0000
  C   C27       1.0  0.8922421546975668  0.546533251013593  0.8864359473950603  1.0000
  N   N3        1.0  0.6956841330602219  0.6781264863575343  0.7883989163823055  1.0000
  C   C28       1.0  0.6390727291747772  0.7764467878032959  0.8335967271433744  1.0000
  S   S1        1.0  0.5545748163168356  0.7757457830771488  0.7591364942491223  1.0000
  N   N4        1.0  0.6574944162450428  0.8857521341159535  0.9299504300747095  1.0000
  H   H17       1.0  0.9962362900675142  0.40816691990481835  0.3355569574160493  1.0000
  H   H18       1.0  0.820836945706814  0.5638813346156315  0.22395155917651066  1.0000
  H   H19       1.0  0.7083183593625091  0.6398933932467463  0.08076203768932233  1.0000
  H   H20       1.0  0.8275601976154854  0.6024011298995366  0.689007304217081  1.0000
  H   H21       1.0  0.01625108486537674  0.5331235351297192  0.6135060182214014  1.0000
  H   H22       1.0  0.6889428104198217  0.6379970118972753  0.6861141109087976  1.0000
  H   H23       1.0  0.713010114687043  0.9011337544582296  0.9638048048084196  1.0000
  H   H24       1.0  0.6159807928776556  0.9566240616980906  0.9627232514618353  1.0000
  Zn  Zn1       1.0  0.8092485418970627  0.5441733387913841  0.4588301767606391  1.0000
  Zn  Zn2       1.0  0.9739128618359655  0.5404724446960638  0.46756354003655853  1.0000
  C   C29       1.0  0.8920216735525771  0.5391960829054698  0.7264150617282692  1.0000
  C   C30       1.0  0.8911415190597016  0.5454514813320044  0.19997889774827615  1.0000
  C   C31       1.0  0.8902007270718931  0.805678029864453  0.4583007147650804  1.0000
  C   C32       1.0  0.8929624184886669  0.2789678036180474  0.4680933130005922  1.0000
  O   O2        1.0  0.9537029823261953  0.5465035449016311  0.25699733327754615  1.0000
  O   O3        1.0  0.9544366240638243  0.5353340341999653  0.6760246284613787  1.0000
  O   O4        1.0  0.9529653466960241  0.7505216103337504  0.45952035647794465  1.0000
  O   O5        1.0  0.9551742032835595  0.3313159792729454  0.47350149424883714  1.0000
  O   O6        1.0  0.8279871442575978  0.7533298054789304  0.45289221956051673  1.0000
  O   O7        1.0  0.8294584124852458  0.5381439613645473  0.6693964202669798  1.0000
  O   O8        1.0  0.8287247683657727  0.5493134045696149  0.25036739210093306  1.0000
  O   O9        1.0  0.8301959895417018  0.3341258297002583  0.4668716610965238  1.0000
