data_image0
_chemical_formula_structural       NC12NC2H8C9NC2H9C6NO2H5Zn2C4O8
_chemical_formula_sum              "N4 C35 H22 O10 Zn2"
_cell_length_a       17.80743265337812
_cell_length_b       9.273595471060368
_cell_length_c       9.27342699604674
_cell_angle_alpha    85.24701978603387
_cell_angle_beta     91.97882923782456
_cell_angle_gamma    88.84631592348521

_space_group_name_H-M_alt    "P 1"
_space_group_IT_number       1

loop_
  _space_group_symop_operation_xyz
  'x, y, z'

loop_
  _atom_site_type_symbol
  _atom_site_label
  _atom_site_symmetry_multiplicity
  _atom_site_fract_x
  _atom_site_fract_y
  _atom_site_fract_z
  _atom_site_occupancy
  N   N1        1.0  0.6926676516447096  0.5736185540977372  0.44736534893469493  1.0000
  C   C1        1.0  0.641357181039676  0.6070004342278286  0.37104666935180997  1.0000
  C   C2        1.0  0.5775219932624187  0.6485250406324359  0.27611584146576673  1.0000
  C   C3        1.0  0.5883470553584669  0.7095412267509262  0.13545098271773814  1.0000
  C   C4        1.0  0.5264391322704232  0.7493765822977889  0.04318120709447215  1.0000
  C   C5        1.0  0.4535472520574478  0.7284936737709957  0.09084316310741292  1.0000
  C   C6        1.0  0.44174827111398496  0.6673417788855105  0.23202821023769582  1.0000
  C   C7        1.0  0.5045134151613928  0.627510169864731  0.3242796371181276  1.0000
  C   C8        1.0  0.36430792322880173  0.6451984718141506  0.28286788801474816  1.0000
  C   C9        1.0  0.3459450779870141  0.6743755323036711  0.4241230255121746  1.0000
  C   C10       1.0  0.27302319207398357  0.6535384739041863  0.4718301296131684  1.0000
  C   C11       1.0  0.2175265405521713  0.6032352163305839  0.3792131653151267  1.0000
  C   C12       1.0  0.1424777646506173  0.5817729018651336  0.42847665761338427  1.0000
  N   N2        1.0  0.08214386428643991  0.5645186450246409  0.46808111637938943  1.0000
  C   C13       1.0  0.2352013895814704  0.57386619116892  0.23856131672972536  1.0000
  C   C14       1.0  0.3080691562238401  0.5947217235933373  0.19056980423395897  1.0000
  H   H1        1.0  0.6445665824170811  0.7262820867642752  0.09719431442623172  1.0000
  H   H2        1.0  0.534938260137572  0.7969177434960171  0.9345567156237129  1.0000
  H   H3        1.0  0.4064307705815737  0.7619357223562708  0.017979216977566992  1.0000
  H   H4        1.0  0.4967203067137865  0.5784313467399949  0.4327637837886378  1.0000
  H   H5        1.0  0.3877027167565651  0.7151446983020195  0.49706464850902554  1.0000
  H   H6        1.0  0.2599010689141881  0.6770164298172627  0.5808032435707475  1.0000
  H   H7        1.0  0.19272126150005683  0.5345012819016233  0.16608055725785364  1.0000
  H   H8        1.0  0.3206733787536242  0.5695358058461011  0.08193162458187753  1.0000
  C   C15       1.0  0.8896670447930586  0.14548292726653345  0.4571844938515903  1.0000
  C   C16       1.0  0.8807794241197211  0.23029107985270403  0.3247934731323108  1.0000
  C   C17       1.0  0.8652935049474243  0.16685794942120968  0.19619130023902032  1.0000
  C   C18       1.0  0.8583034429376447  0.016549835276538305  0.1964006795678488  1.0000
  C   C19       1.0  0.8683420758085237  0.9305542050274452  0.3278907955810497  1.0000
  C   C20       1.0  0.8851517506386082  0.9926429124152745  0.45827476520884547  1.0000
  C   C21       1.0  0.8413062058778787  0.9493822581545858  0.05935879595984073  1.0000
  C   C22       1.0  0.8779229478589661  0.8200453625917006  0.029553871537331355  1.0000
  C   C23       1.0  0.861070974206644  0.7589011721082082  0.899928745173125  1.0000
  N   N3        1.0  0.8094917727524958  0.8240939528034501  0.8030810428257675  1.0000
  C   C24       1.0  0.7731279202738608  0.9491566826218143  0.8286273360769196  1.0000
  C   C25       1.0  0.7883098592863677  0.014083085884304625  0.9568022548274264  1.0000
  H   H9        1.0  0.9429208182218624  0.40637964580357044  0.6765116695111375  1.0000
  H   H10       1.0  0.8842230352712951  0.34703748319828676  0.32098612227799794  1.0000
  H   H11       1.0  0.8590381701317154  0.23570562986773536  0.096143707972284  1.0000
  H   H12       1.0  0.8637125556009094  0.8141601987916774  0.3286761419708557  1.0000
  H   H13       1.0  0.9686516090820267  0.8596061036549774  0.7810555807056052  1.0000
  H   H14       1.0  0.9198777444825462  0.7677713229019641  0.10469899178711972  1.0000
  H   H15       1.0  0.889219169488414  0.6596112547591676  0.8761582784855406  1.0000
  H   H16       1.0  0.7322209510460328  0.9981673335462318  0.7494829015250284  1.0000
  H   H17       1.0  0.7582182583468366  0.11279803427701851  0.9763279407684302  1.0000
  C   C26       1.0  0.8856597030119322  0.5721333801393558  0.03381450527912677  1.0000
  C   C27       1.0  0.9287323054921998  0.6742176941406994  0.10200014160709792  1.0000
  C   C28       1.0  0.9767947656671753  0.7667197445183171  0.023189711028393845  1.0000
  C   C29       1.0  0.9816219928859048  0.7562104623893278  0.8737878041092872  1.0000
  C   C30       1.0  0.9383728529244119  0.6572810810823666  0.8041141772098181  1.0000
  C   C31       1.0  0.8891590962555748  0.5659924303308019  0.8816448190436321  1.0000
  N   N4        1.0  0.020927365457046987  0.8696731583605943  0.09511509912261795  1.0000
  O   O1        1.0  0.016042269131325115  0.8801034315583331  0.24168643967479175  1.0000
  O   O2        1.0  0.06416993064941923  0.9514380622445555  0.02569756007888513  1.0000
  H   H18       1.0  0.7812600318924223  0.44579196692069245  0.31754329842288254  1.0000
  H   H19       1.0  0.9261211099773008  0.6792845951559725  0.217980739831531  1.0000
  H   H20       1.0  0.018379113356864707  0.825684758033344  0.8102072941975513  1.0000
  H   H21       1.0  0.9421169405084128  0.6545936666430652  0.6879993195418272  1.0000
  H   H22       1.0  0.7324142168615356  0.3851021884225885  0.7834012348287178  1.0000
  Zn  Zn1       1.0  0.8050621316782554  0.5709886055301352  0.4533517891660097  1.0000
  Zn  Zn2       1.0  0.9697494930716922  0.5671367421763149  0.46210643583646616  1.0000
  C   C32       1.0  0.8885266023579875  0.5614068949822877  0.7213792082502504  1.0000
  C   C33       1.0  0.8862868116571782  0.5767202296465792  0.1940792563818694  1.0000
  C   C34       1.0  0.8859776450819703  0.8325534218700961  0.45231596235889326  1.0000
  C   C35       1.0  0.8888357222914045  0.3055719704913127  0.46314257401851466  1.0000
  O   O3        1.0  0.9489953039612472  0.5767915632483902  0.2511879055758257  1.0000
  O   O4        1.0  0.9508120108300503  0.5584110010553922  0.670914716356982  1.0000
  O   O5        1.0  0.9487528592863281  0.7773652594663298  0.4536441987754598  1.0000
  O   O6        1.0  0.9510543988065803  0.3578373172544351  0.46845831194529564  1.0000
  O   O7        1.0  0.8237571697436138  0.780288031768092  0.44699991006205786  1.0000
  O   O8        1.0  0.8258163117293734  0.5613355069406896  0.6642703529031697  1.0000
  O   O9        1.0  0.8239995980148143  0.5797160314378451  0.24454180646656676  1.0000
  O   O10       1.0  0.8260586933587828  0.3607617743429845  0.46181232105296677  1.0000
