data_image0
_chemical_formula_structural       NC12NC2H8C6NCOCH9C9H10Zn2C4O8
_chemical_formula_sum              "N3 C35 H27 O9 Zn2"
_cell_length_a       17.80743265337812
_cell_length_b       10.300268703208216
_cell_length_c       10.297187173949778
_cell_angle_alpha    85.56741591090606
_cell_angle_beta     91.50840816747596
_cell_angle_gamma    89.41550465668445

_space_group_name_H-M_alt    "P 1"
_space_group_IT_number       1

loop_
  _space_group_symop_operation_xyz
  'x, y, z'

loop_
  _atom_site_type_symbol
  _atom_site_label
  _atom_site_symmetry_multiplicity
  _atom_site_fract_x
  _atom_site_fract_y
  _atom_site_fract_z
  _atom_site_occupancy
  N   N1        1.0  0.7074943978157859  0.4063934596601151  0.6010739402569647  1.0000
  C   C1        1.0  0.6566860573305361  0.4359400198729475  0.5323622105659889  1.0000
  C   C2        1.0  0.5934754652230932  0.4726937966337943  0.44689346848042155  1.0000
  C   C3        1.0  0.6052233825930589  0.5266919449265053  0.32024976690892526  1.0000
  C   C4        1.0  0.5439198389998843  0.561942582645363  0.23717745610942464  1.0000
  C   C5        1.0  0.4707141892594548  0.5434584200287849  0.28008881976558064  1.0000
  C   C6        1.0  0.45798940389014264  0.4893415480090253  0.40720075314906246  1.0000
  C   C7        1.0  0.5201502671055334  0.45409416144365067  0.4902565491024511  1.0000
  C   C8        1.0  0.3802150468341579  0.4697437623216145  0.4529729521573689  1.0000
  C   C9        1.0  0.3613917644496583  0.49694870763888677  0.5800421296200835  1.0000
  C   C10       1.0  0.2881561501377687  0.4785061225944207  0.6229940644455512  1.0000
  C   C11       1.0  0.2328006903957168  0.4326044653750558  0.5397149496178528  1.0000
  C   C12       1.0  0.1574282321841821  0.41360930356425074  0.584068076949678  1.0000
  N   N2        1.0  0.0968341133427323  0.39833847097250863  0.6197249401252929  1.0000
  C   C13       1.0  0.2509323780359708  0.4052307017500756  0.4131888448989032  1.0000
  C   C14       1.0  0.3241151982298703  0.423688031150695  0.3699809737561892  1.0000
  H   H1        1.0  0.6616946529561588  0.5415095210562717  0.28580626602669956  1.0000
  H   H2        1.0  0.5531337972802721  0.6040220671672754  0.13937991426337737  1.0000
  H   H3        1.0  0.4240852082156111  0.5730820755847166  0.21448563734043824  1.0000
  H   H4        1.0  0.5116350080944485  0.4106294192584601  0.5879296081595755  1.0000
  H   H5        1.0  0.40304414591568  0.5341364400431539  0.645628265183662  1.0000
  H   H6        1.0  0.2746838118659338  0.5003660426067387  0.7210220997880621  1.0000
  H   H7        1.0  0.2085627535962997  0.369310252059897  0.34801575567108434  1.0000
  H   H8        1.0  0.3370593824513404  0.40029269000131174  0.2722563179630353  1.0000
  C   C15       1.0  0.9022441725637377  0.021016679837519092  0.6104109240948641  1.0000
  C   C16       1.0  0.9149446459555909  0.030123547198657175  0.4759923941207871  1.0000
  C   C17       1.0  0.9223691620070698  0.9173909538408465  0.40858537524827176  1.0000
  C   C18       1.0  0.9147746851316687  0.7949675485757048  0.476016657736712  1.0000
  C   C19       1.0  0.9020915155476175  0.7837051579867548  0.6103994790824474  1.0000
  C   C20       1.0  0.896176014207455  0.8973251457323563  0.676979618109032  1.0000
  N   N3        1.0  0.9342025749659956  0.9251486874391259  0.2705820253144846  1.0000
  C   C21       1.0  0.9783243203838243  0.023335021579179216  0.20289894845318845  1.0000
  O   O1        1.0  0.020728334190401654  0.09546047299583638  0.26491359065580755  1.0000
  C   C22       1.0  0.9783932846181387  0.034201835565322636  0.05739081297789994  1.0000
  H   H9        1.0  0.8963231272037537  0.34502550649163766  0.6611595406251416  1.0000
  H   H10       1.0  0.9175747654216249  0.12491193265117007  0.4232747821059706  1.0000
  H   H11       1.0  0.9194520563909139  0.708502063400147  0.4230693869458704  1.0000
  H   H12       1.0  0.886400991671762  0.8894915535890273  0.780659241266014  1.0000
  H   H13       1.0  0.8961748438346632  0.4520765993208011  0.6609602200505877  1.0000
  H   H14       1.0  0.9135231645817339  0.8501461260526956  0.21739943766791892  1.0000
  H   H15       1.0  0.9209048556688876  0.01835165254618465  0.017809930698076126  1.0000
  H   H16       1.0  0.9970283781699741  0.13247161718536238  0.02040731680708463  1.0000
  H   H17       1.0  0.017179093462174277  0.9596695339075008  0.023491650671493725  1.0000
  C   C23       1.0  0.9022671786925246  0.4023119112326632  0.22895681402429302  1.0000
  C   C24       1.0  0.8261260496544178  0.43955611720757237  0.2218272413680351  1.0000
  C   C25       1.0  0.787116705096478  0.45863720388995466  0.10155814738939295  1.0000
  C   C26       1.0  0.8258308893215185  0.43969999589981246  0.9865903761595023  1.0000
  C   C27       1.0  0.902068529571671  0.40240992908773565  0.9918536071061199  1.0000
  C   C28       1.0  0.9397888145418509  0.3839581252130162  0.11340194997025477  1.0000
  C   C29       1.0  0.7047645862522726  0.4989192098050035  0.10327917279619014  1.0000
  C   C30       1.0  0.6521795317196522  0.44777453993385286  0.000488571817899075  1.0000
  C   C31       1.0  0.6744905911232453  0.5905797165324669  0.990457088575007  1.0000
  H   H18       1.0  0.9316088176574796  0.38797226741107904  0.5592415741538186  1.0000
  H   H19       1.0  0.7967314540606616  0.4539347482895575  0.3104971961301597  1.0000
  H   H20       1.0  0.7972519577805925  0.453676305901519  0.8926141565139618  1.0000
  H   H21       1.0  0.9985331476214214  0.3552227949944611  0.1181752107393843  1.0000
  H   H22       1.0  0.0460571188326917  0.3319629347412565  0.7945790835110742  1.0000
  H   H23       1.0  0.6782953830027839  0.5118676223775258  0.1980884055183012  1.0000
  H   H24       1.0  0.6776334207518073  0.3886343756060213  0.9271832510630436  1.0000
  H   H25       1.0  0.5937940570701734  0.431411115509863  0.03281034347506573  1.0000
  H   H26       1.0  0.7134975972514261  0.618185718291498  0.9110591363252256  1.0000
  H   H27       1.0  0.6291442781594273  0.6576800352142635  0.016913450763839988  1.0000
  Zn  Zn1       1.0  0.8198494315987102  0.40406549778306333  0.6064637044798673  1.0000
  Zn  Zn2       1.0  0.9844790764269706  0.40065584129842824  0.614345771319857  1.0000
  C   C32       1.0  0.9021054308616075  0.397218004248739  0.847649771659873  1.0000
  C   C33       1.0  0.9022248745535411  0.4075049361507417  0.37315991768023493  1.0000
  C   C34       1.0  0.9021178623232737  0.6395401972223884  0.6052252186243716  1.0000
  C   C35       1.0  0.9022123872095129  0.16518118412746907  0.6155845373025814  1.0000
  O   O2        1.0  0.9646867702696459  0.4079481504369664  0.42454699995173817  1.0000
  O   O3        1.0  0.9645936265929118  0.39418595986482385  0.802244621832046  1.0000
  O   O4        1.0  0.9646028225961084  0.5898642128899565  0.6064850397182731  1.0000
  O   O5        1.0  0.9646775181130056  0.21226990785255073  0.6203064819807949  1.0000
  O   O6        1.0  0.8396509337326588  0.5924514323939023  0.600502991122335  1.0000
  O   O7        1.0  0.8396417374318075  0.39677473958335496  0.7962625039526676  1.0000
  O   O8        1.0  0.8397348815742338  0.410536884700234  0.4185633203493375  1.0000
  O   O9        1.0  0.8397256293910205  0.214858632840063  0.6143228997665153  1.0000
