data_image0
_chemical_formula_structural       NC12NC2H8C12H10C12H16Zn2C4O8
_chemical_formula_sum              "N2 C42 H34 Zn2 O8"
_cell_length_a       17.80743265337812
_cell_length_b       10.299137764757564
_cell_length_c       10.298981074953016
_cell_angle_alpha    85.54441118339962
_cell_angle_beta     91.51542336112495
_cell_angle_gamma    89.45463381285008

_space_group_name_H-M_alt    "P 1"
_space_group_IT_number       1

loop_
  _space_group_symop_operation_xyz
  'x, y, z'

loop_
  _atom_site_type_symbol
  _atom_site_label
  _atom_site_symmetry_multiplicity
  _atom_site_fract_x
  _atom_site_fract_y
  _atom_site_fract_z
  _atom_site_occupancy
  N   N1        1.0  0.7079430534565947  0.40664942740954846  0.6008396853035134  1.0000
  C   C1        1.0  0.6571413396297969  0.4362034631176417  0.5321295927954184  1.0000
  C   C2        1.0  0.5939389908653495  0.4729665386566597  0.4466628866355298  1.0000
  C   C3        1.0  0.6056989427793187  0.526978405898455  0.32002235538405843  1.0000
  C   C4        1.0  0.5444032271652358  0.5622380207344613  0.23695218055478717  1.0000
  C   C5        1.0  0.4711934265348545  0.5437491854545251  0.2798625323927253  1.0000
  C   C6        1.0  0.45845659367096114  0.4896185541968088  0.4069712568311856  1.0000
  C   C7        1.0  0.520609628999047  0.4543621918145788  0.4900249184879695  1.0000
  C   C8        1.0  0.3806778552579375  0.47001579962954354  0.4527423371046837  1.0000
  C   C9        1.0  0.3618742228641843  0.497217473105227  0.5797812756688885  1.0000
  C   C10       1.0  0.2886344767578853  0.47877021859357005  0.6227321780859052  1.0000
  C   C11       1.0  0.2332551958278608  0.4328670862667978  0.5394822144452578  1.0000
  C   C12       1.0  0.1578784901588389  0.4138671089857977  0.5838342593769128  1.0000
  N   N2        1.0  0.09728095664236941  0.3985924050835217  0.6194902523869728  1.0000
  C   C13       1.0  0.2513672063264803  0.4054965437427007  0.4129863141719441  1.0000
  C   C14       1.0  0.32455414584424225  0.42395855816642647  0.36977951322363367  1.0000
  H   H1        1.0  0.6621735375008017  0.54179973016271  0.2855796729831126  1.0000
  H   H2        1.0  0.5536266272415785  0.6043281484710026  0.1391569603345144  1.0000
  H   H3        1.0  0.4245713234759179  0.5733801605967628  0.21426044303917524  1.0000
  H   H4        1.0  0.5120843793357228  0.4108866344499751  0.5876961372389544  1.0000
  H   H5        1.0  0.4035457692661074  0.5344065010659125  0.6453441082053928  1.0000
  H   H6        1.0  0.275177637686891  0.500627727031876  0.7207365954085658  1.0000
  H   H7        1.0  0.20897894035930384  0.3695749398543313  0.3478360377447667  1.0000
  H   H8        1.0  0.3374822539287091  0.40056541443757676  0.27207893533103533  1.0000
  C   C15       1.0  0.9025432668769175  0.021222461416189553  0.6103032381252471  1.0000
  C   C16       1.0  0.9025358393023131  0.03106556576898245  0.47354987355914613  1.0000
  C   C17       1.0  0.9026063588770729  0.9189231320144042  0.4040739742299051  1.0000
  C   C18       1.0  0.9026843613036917  0.7958072758591668  0.473199848070605  1.0000
  C   C19       1.0  0.9026879233392407  0.7840092516762758  0.6100382534605497  1.0000
  C   C20       1.0  0.9026186136705631  0.8972342698595617  0.6777475742255086  1.0000
  C   C21       1.0  0.9025976115344462  0.9303810958989357  0.25940238295002116  1.0000
  C   C22       1.0  0.9479198144232636  0.8471233689923319  0.1917061357233858  1.0000
  C   C23       1.0  0.9478182118253534  0.8581609877400443  0.055523383844966245  1.0000
  C   C24       1.0  0.9025831604397656  0.9520794374844992  0.9855064515742975  1.0000
  C   C25       1.0  0.8573553520099642  0.0352207526757542  0.051530024845799494  1.0000
  C   C26       1.0  0.8572680577449154  0.02468193987657985  0.18770460555729507  1.0000
  H   H9        1.0  0.9025077841671055  0.34491288302653356  0.6629057886991117  1.0000
  H   H10       1.0  0.9035148095077262  0.12616805561536726  0.42079396216865605  1.0000
  H   H11       1.0  0.9017038873220924  0.7090547366608306  0.42010358654474445  1.0000
  H   H12       1.0  0.9026222860732638  0.8889265706615747  0.7832284838411141  1.0000
  H   H13       1.0  0.9022169497435518  0.5544594192886472  0.8682906826513119  1.0000
  H   H14       1.0  0.9841198899553204  0.7747137163242255  0.24406348637138375  1.0000
  H   H15       1.0  0.9830013745951325  0.7940201892147517  0.004253543539027849  1.0000
  H   H16       1.0  0.9025776828957048  0.9604303448319883  0.8800951841907159  1.0000
  H   H17       1.0  0.8221667112069315  0.1077310910782574  0.9971523918291738  1.0000
  H   H18       1.0  0.8210735932506429  0.08905099182771492  0.23685849977817464  1.0000
  C   C27       1.0  0.9026877551369378  0.40258720615630783  0.2287859820521787  1.0000
  C   C28       1.0  0.9757038119583868  0.34921772661092976  0.2351015354553614  1.0000
  C   C29       1.0  0.012719580490519355  0.32248731889579196  0.12104839522666988  1.0000
  C   C30       1.0  0.9755280363854038  0.3492760242836852  0.999803057836568  1.0000
  C   C31       1.0  0.9025434182325945  0.40264446917187824  0.9915554499681778  1.0000
  C   C32       1.0  0.8665755356512024  0.42907506161789666  0.1065997024275358  1.0000
  C   C33       1.0  0.09161113700014578  0.26450703967915556  0.12769882991178427  1.0000
  C   C34       1.0  0.09316888284341762  0.12437073640226104  0.19494432492459324  1.0000
  C   C35       1.0  0.17028989513612158  0.08418796156530628  0.2580417016837475  1.0000
  C   C36       1.0  0.2349435604463277  0.15227362042398096  0.18596970584810113  1.0000
  C   C37       1.0  0.22917809293326474  0.3017378077673156  0.1871417942623257  1.0000
  C   C38       1.0  0.14779459297735875  0.35301584378360373  0.1939029659551763  1.0000
  H   H19       1.0  0.764731406914982  0.5028138095284784  0.42421493179514846  1.0000
  H   H20       1.0  0.003836965957592753  0.32785543636231695  0.32891345773542957  1.0000
  H   H21       1.0  0.0036497182787365023  0.32843106000757505  0.9116648476035225  1.0000
  H   H22       1.0  0.8102807259069466  0.47023437016000336  0.10094015486815966  1.0000
  H   H23       1.0  0.8743541442495207  0.42281108410741397  0.6609230022551738  1.0000
  H   H24       1.0  0.11112211607851052  0.25765919438548535  0.026520930394030584  1.0000
  H   H25       1.0  0.0779166523706023  0.055393077373309785  0.12089079959247906  1.0000
  H   H26       1.0  0.05055571836709527  0.11319197326616526  0.2718396259557354  1.0000
  H   H27       1.0  0.17222883834749525  0.10964048649258284  0.3610869730469639  1.0000
  H   H28       1.0  0.17781366505358287  0.9768825119473661  0.2587008774273112  1.0000
  H   H29       1.0  0.23388582208225106  0.12491962161850512  0.08355478964596741  1.0000
  H   H30       1.0  0.2894426875017837  0.11759390136776116  0.23181328163913517  1.0000
  H   H31       1.0  0.25523464927281236  0.34659881678683857  0.09778610639330654  1.0000
  H   H32       1.0  0.2621302387392037  0.3334652607654389  0.2720317206157956  1.0000
  H   H33       1.0  0.13365850849502325  0.3580305638195287  0.29791581540612655  1.0000
  H   H34       1.0  0.14401440183510505  0.453626395545504  0.1462567261752623  1.0000
  Zn  Zn1       1.0  0.8202975634189014  0.40432087782194204  0.6062293245374142  1.0000
  Zn  Zn2       1.0  0.984926440172677  0.4009103611890956  0.6141112103246888  1.0000
  C   C39       1.0  0.9025680615941116  0.39745963350741453  0.8473774405101313  1.0000
  C   C40       1.0  0.9026577400263538  0.4077732070166826  0.3729633073243477  1.0000
  C   C41       1.0  0.90265769774214  0.6398260039400565  0.6049127569190542  1.0000
  C   C42       1.0  0.902568047392961  0.1654052773298511  0.6154280580095011  1.0000
  O   O1        1.0  0.965123466363912  0.40821373681274187  0.4243416713097852  1.0000
  O   O2        1.0  0.9650518433446752  0.3944296206747049  0.8019808719416412  1.0000
  O   O3        1.0  0.9651233832086359  0.590143547489036  0.6061888836723106  1.0000
  O   O4        1.0  0.9650518703434532  0.21249982044581395  0.6201335595076216  1.0000
  O   O5        1.0  0.8401720770683709  0.5927314197304792  0.6002069726579484  1.0000
  O   O6        1.0  0.8401005375100202  0.39701905333559373  0.79599889113667  1.0000
  O   O7        1.0  0.8401721608660631  0.41080312409582875  0.4183581290573868  1.0000
  O   O8        1.0  0.840100564822348  0.21508919844675334  0.6141501146301844  1.0000
