data_image0
_chemical_formula_structural       NC12NC2H8C10H6C6NCSNH8Zn2C4O8
_chemical_formula_sum              "N4 C35 H22 S1 Zn2 O8"
_cell_length_a       17.80743265337812
_cell_length_b       10.30283237001006
_cell_length_c       9.275081717742442
_cell_angle_alpha    86.13105290307757
_cell_angle_beta     91.71745222805815
_cell_angle_gamma    89.43531271068052

_space_group_name_H-M_alt    "P 1"
_space_group_IT_number       1

loop_
  _space_group_symop_operation_xyz
  'x, y, z'

loop_
  _atom_site_type_symbol
  _atom_site_label
  _atom_site_symmetry_multiplicity
  _atom_site_fract_x
  _atom_site_fract_y
  _atom_site_fract_z
  _atom_site_occupancy
  N   N1        1.0  0.7049188358727898  0.3923179881560839  0.44788562755702044  1.0000
  C   C1        1.0  0.6539760741331853  0.42118321062214314  0.3716490144452387  1.0000
  C   C2        1.0  0.5905982792221404  0.45708948859591736  0.27682026466658116  1.0000
  C   C3        1.0  0.6020983505693792  0.5098319686774591  0.13630732096065046  1.0000
  C   C4        1.0  0.540632197680917  0.5442589900815415  0.04413743691593308  1.0000
  C   C5        1.0  0.467510489353325  0.5262003397920714  0.09174818703498655  1.0000
  C   C6        1.0  0.4550344825562732  0.4733437579885109  0.23278064178015634  1.0000
  C   C7        1.0  0.5173579219878189  0.4389198249539146  0.32493220231085207  1.0000
  C   C8        1.0  0.3773496869262842  0.4541998228225381  0.28356553017752906  1.0000
  C   C9        1.0  0.35879138018746715  0.48264403906097497  0.42455190151190236  1.0000
  C   C10       1.0  0.2856397984773249  0.46462735369124775  0.47220766688725213  1.0000
  C   C11       1.0  0.2301050566079036  0.4179206090852643  0.37980697707981736  1.0000
  C   C12       1.0  0.1548193821627767  0.3993652283635678  0.429017385726026  1.0000
  N   N2        1.0  0.0942950314935204  0.38444794952087147  0.46857916892937834  1.0000
  C   C13       1.0  0.24797284397696903  0.389312943195846  0.23942315353366572  1.0000
  C   C14       1.0  0.32107111179353204  0.40734185922957145  0.1914834216911494  1.0000
  H   H1        1.0  0.6585022401862914  0.5243080052699207  0.0980917811217874  1.0000
  H   H2        1.0  0.549654839089665  0.5853687186930734  0.9356297139262422  1.0000
  H   H3        1.0  0.42075345143577564  0.5551731234702102  0.01896057360873682  1.0000
  H   H4        1.0  0.5090334482100789  0.39642396878713604  0.4333017859503998  1.0000
  H   H5        1.0  0.4005851624483633  0.5204655518767929  0.4973217144600903  1.0000
  H   H6        1.0  0.2723720514741049  0.4874430932808973  0.5809721927589604  1.0000
  H   H7        1.0  0.20546291612308892  0.35276244280197044  0.16711164527817468  1.0000
  H   H8        1.0  0.3338110169107245  0.38299406267825087  0.08305547620668796  1.0000
  C   C15       1.0  0.8996105103123186  0.007130397257013588  0.4582387849139873  1.0000
  C   C16       1.0  0.9355535554229681  0.013496036196430916  0.3252363603137156  1.0000
  C   C17       1.0  0.953435899849267  0.8995595897482189  0.25906558561819204  1.0000
  C   C18       1.0  0.9355536578433512  0.7781934447790357  0.3252366674989271  1.0000
  C   C19       1.0  0.8996105639080861  0.7696255502780917  0.45823881722512216  1.0000
  C   C20       1.0  0.8818262964441975  0.8846834449811467  0.5240468827944991  1.0000
  C   C21       1.0  0.9902809352168227  0.9072138131539984  0.12272534123696177  1.0000
  C   C22       1.0  0.021128145739829796  0.9136221117507077  0.008578586535645583  1.0000
  C   C23       1.0  0.0572499200261114  0.9211260918470562  0.8749139357809179  1.0000
  C   C24       1.0  0.0880923825953035  0.9275334220846752  0.7607845454223425  1.0000
  H   H9        1.0  0.8859995713118599  0.332042179922563  0.5086044595985124  1.0000
  H   H10       1.0  0.9497323490782821  0.10685982714995901  0.27276954539427556  1.0000
  H   H11       1.0  0.9497325851615342  0.6907207172031382  0.2727696341411774  1.0000
  H   H12       1.0  0.8541073268284889  0.8789252582828124  0.6266166659368853  1.0000
  H   H13       1.0  0.8859993586796808  0.43905857089375655  0.5086042382192537  1.0000
  H   H14       1.0  0.1151746085299441  0.9331597139193711  0.6605694322223354  1.0000
  C   C25       1.0  0.8989307819509098  0.3845881359134802  0.03501380192336412  1.0000
  C   C26       1.0  0.8317736053435484  0.41424161105845303  0.10214785900524448  1.0000
  C   C27       1.0  0.7679149250305324  0.45563020843009916  0.0204150634633935  1.0000
  C   C28       1.0  0.7699148011819689  0.4698460170955119  0.8692703813568219  1.0000
  C   C29       1.0  0.8357004477191288  0.43614873829350986  0.8009558317274572  1.0000
  C   C30       1.0  0.9002903053943786  0.39216783351572904  0.8814638287264893  1.0000
  N   N3        1.0  0.7044170942439951  0.5106262431451574  0.7830037242481733  1.0000
  C   C31       1.0  0.6483173486769687  0.5991328180698476  0.827885434333103  1.0000
  S   S1        1.0  0.5638157877942129  0.5985017833150215  0.7534274551755122  1.0000
  N   N4        1.0  0.6673078601798904  0.6975279783860233  0.9238877195677153  1.0000
  H   H15       1.0  0.003564383123535686  0.26761237679666117  0.3310296877784038  1.0000
  H   H16       1.0  0.8289753757371212  0.4077843383325963  0.21892366625912518  1.0000
  H   H17       1.0  0.7168523557359501  0.47620934174988117  0.07548976530223639  1.0000
  H   H18       1.0  0.8358990844526877  0.44245932505707675  0.6838555698025179  1.0000
  H   H19       1.0  0.024229451473056107  0.38009659282440955  0.6085770119130993  1.0000
  H   H20       1.0  0.6974669380349484  0.47450224549890674  0.6808479354052448  1.0000
  H   H21       1.0  0.7229036044911885  0.7113743001859805  0.9576926422501315  1.0000
  H   H22       1.0  0.6261630539413819  0.7613259069559024  0.95643268705388  1.0000
  Zn  Zn1       1.0  0.8172844116233985  0.39004347318689225  0.4538656452316321  1.0000
  Zn  Zn2       1.0  0.9819294721293906  0.38671197953075787  0.4626109069162083  1.0000
  C   C32       1.0  0.9000316416661283  0.3855630163076078  0.7214665321228497  1.0000
  C   C33       1.0  0.8991840402329248  0.3911940394165765  0.19501025697921048  1.0000
  C   C34       1.0  0.8995974658001076  0.6254463777069157  0.4524954432419279  1.0000
  C   C35       1.0  0.8996181600403872  0.15130912001558872  0.46398141971365336  1.0000
  O   O1        1.0  0.9617509784325606  0.3921410924847779  0.252025310114399  1.0000
  O   O2        1.0  0.9624264940967425  0.3820864535012465  0.6710885153781745  1.0000
  O   O3        1.0  0.9620750517144955  0.5757953320328466  0.4538924133523934  1.0000
  O   O4        1.0  0.9621023644590398  0.1984322234097231  0.4692213010942623  1.0000
  O   O5        1.0  0.8371114631084583  0.5783232304461476  0.4472552480616687  1.0000
  O   O6        1.0  0.8374629053639725  0.38461591105444737  0.66445127324202  1.0000
  O   O7        1.0  0.8367873869666946  0.39467048927847515  0.24538633521303277  1.0000
  O   O8        1.0  0.8371387731636507  0.2009616118850961  0.4625824342469049  1.0000
