data_image0
_chemical_formula_structural       NC12NC2H8C6SCNH5C6OCH8Zn2C4O8
_chemical_formula_sum              "N3 C32 H21 S1 O9 Zn2"
_cell_length_a       17.80743265337812
_cell_length_b       9.27526961838325
_cell_length_c       9.273891588657152
_cell_angle_alpha    86.33093544334616
_cell_angle_beta     91.22048166911064
_cell_angle_gamma    88.87871087483882

_space_group_name_H-M_alt    "P 1"
_space_group_IT_number       1

loop_
  _space_group_symop_operation_xyz
  'x, y, z'

loop_
  _atom_site_type_symbol
  _atom_site_label
  _atom_site_symmetry_multiplicity
  _atom_site_fract_x
  _atom_site_fract_y
  _atom_site_fract_z
  _atom_site_occupancy
  N   N1        1.0  0.7041681721981479  0.5476808457233475  0.4545027088483198  1.0000
  C   C1        1.0  0.6534085254494424  0.5798047620771463  0.37840500904413  1.0000
  C   C2        1.0  0.5902584937699826  0.6197646192616932  0.2837490573490322  1.0000
  C   C3        1.0  0.6020986248579612  0.6784624183529122  0.14348998341343222  1.0000
  C   C4        1.0  0.5408564789869522  0.7167770898490444  0.05148582754975384  1.0000
  C   C5        1.0  0.4676205907944908  0.696679808924467  0.099009674086318  1.0000
  C   C6        1.0  0.4548028166736693  0.6378548398779069  0.2397877013854779  1.0000
  C   C7        1.0  0.5169023145256899  0.5995436141180139  0.33177354899693556  1.0000
  C   C8        1.0  0.3769955685113039  0.6165494888751433  0.29048045120746124  1.0000
  C   C9        1.0  0.3576431745281656  0.6480197217972767  0.43159522655469096  1.0000
  C   C10       1.0  0.2843769763806934  0.6279690098351918  0.47916428418517243  1.0000
  C   C11       1.0  0.22951888033798631  0.5761742274843629  0.386547288490263  1.0000
  C   C12       1.0  0.15411457737318102  0.5555238920185428  0.435668391754058  1.0000
  N   N2        1.0  0.0934948576976462  0.5389224104468722  0.47515837943593175  1.0000
  C   C13       1.0  0.2481789475974419  0.5445219461419519  0.24603426762625413  1.0000
  C   C14       1.0  0.3213930442930705  0.5645864851369842  0.19818131226722868  1.0000
  H   H1        1.0  0.6585942687246596  0.6945726893697528  0.10534410852672837  1.0000
  H   H2        1.0  0.5501396047205457  0.7625277782315338  0.9431759416345322  1.0000
  H   H3        1.0  0.4210305162487819  0.7289202312086356  0.026361345065662123  1.0000
  H   H4        1.0  0.5083256946624858  0.5522535682621603  0.4399387739793885  1.0000
  H   H5        1.0  0.3988982904811423  0.6899631112379563  0.5045402771507788  1.0000
  H   H6        1.0  0.2704917719822942  0.6532156891334637  0.5880319755020236  1.0000
  H   H7        1.0  0.2061985447995413  0.503989789478624  0.1735534886829586  1.0000
  H   H8        1.0  0.3347574165995683  0.5376379679804566  0.08964297396717691  1.0000
  C   C15       1.0  0.9009571497011397  0.11987081099907582  0.4630416863331128  1.0000
  C   C16       1.0  0.8745254335069722  0.2023664506792906  0.33912739873001474  1.0000
  C   C17       1.0  0.8423458067324314  0.13609441165042457  0.2226330893977253  1.0000
  C   C18       1.0  0.8361096982116931  0.98618335802367  0.22765399488586402  1.0000
  C   C19       1.0  0.8629284874448105  0.9021244166174719  0.349012073686108  1.0000
  C   C20       1.0  0.8967130984110975  0.9667213466709238  0.4666321063045764  1.0000
  S   S1        1.0  0.7938514993331659  0.901568602662748  0.07852538466652548  1.0000
  C   C21       1.0  0.8805293628479832  0.8825520775656464  0.9921614021788443  1.0000
  N   N3        1.0  0.9373677879571475  0.8700974964526887  0.9355722210020829  1.0000
  H   H9        1.0  0.9815074796892809  0.3861756672728516  0.6475995586227008  1.0000
  H   H10       1.0  0.8770966738641139  0.3191754911250473  0.3336698189579408  1.0000
  H   H11       1.0  0.8217032067911958  0.20170033300212875  0.12881565388300342  1.0000
  H   H12       1.0  0.8590739105591808  0.785629079830932  0.3497656214250082  1.0000
  H   H13       1.0  0.020209818172744365  0.8418685712429477  0.7356640423261562  1.0000
  C   C22       1.0  0.9000849480667392  0.5394495533006438  0.04161069168982712  1.0000
  C   C23       1.0  0.9613012099879911  0.5989689890587337  0.11370661764638101  1.0000
  C   C24       1.0  0.018202281579122737  0.6693514190472403  0.03723866947437959  1.0000
  C   C25       1.0  0.01409003674738285  0.6805711171928626  0.8856300236679866  1.0000
  C   C26       1.0  0.9544564303402002  0.6201430935303383  0.8122719334093271  1.0000
  C   C27       1.0  0.8975852745249803  0.5471425331505724  0.8880631253838267  1.0000
  O   O1        1.0  0.07737583888103972  0.7271416736476219  0.11585112886965332  1.0000
  C   C28       1.0  0.13885819350969686  0.801635494919678  0.052378605305018144  1.0000
  H   H14       1.0  0.7218405444846676  0.4549074528426378  0.14277218424346816  1.0000
  H   H15       1.0  0.96418533888347  0.5938776313535599  0.2307709359489034  1.0000
  H   H16       1.0  0.05708940990848488  0.7346585885690595  0.8232372966490056  1.0000
  H   H17       1.0  0.9538130260327671  0.6275881914224255  0.6951901053624616  1.0000
  H   H18       1.0  0.7787513945855344  0.4844821325251263  0.6060213676789559  1.0000
  H   H19       1.0  0.11820365296244262  0.8996651878453283  0.9873268515097582  1.0000
  H   H20       1.0  0.17054038059167254  0.7293684906679558  0.9833243917686261  1.0000
  H   H21       1.0  0.17714072187149066  0.8352360454781584  0.13940851199087634  1.0000
  Zn  Zn1       1.0  0.816519441809446  0.545149576316097  0.4604717815349344  1.0000
  Zn  Zn2       1.0  0.9811436098220817  0.5414420248649952  0.46920101257766866  1.0000
  C   C29       1.0  0.8980848907175523  0.53994418219913  0.7280410664363923  1.0000
  C   C30       1.0  0.8995799490692359  0.5466491991272306  0.20163197216937578  1.0000
  C   C31       1.0  0.8975284005311684  0.8065964435529809  0.46021009983687033  1.0000
  C   C32       1.0  0.9001363915360071  0.2799952073456067  0.4694630052831914  1.0000
  O   O2        1.0  0.9618845121331706  0.547652178956028  0.2586492467277721  1.0000
  O   O3        1.0  0.9607262687079141  0.5361261650572917  0.6776486567691513  1.0000
  O   O4        1.0  0.9602760492395516  0.7514512709656644  0.4613732179907879  1.0000
  O   O5        1.0  0.9623346756938805  0.3323270836455212  0.4749245745091055  1.0000
  O   O6        1.0  0.8353283197595128  0.7542645188022767  0.4547482166170653  1.0000
  O   O7        1.0  0.8357785307693534  0.5389411445883834  0.6710235858947018  1.0000
  O   O8        1.0  0.8369367796134404  0.5504670924902577  0.25202244287002395  1.0000
  O   O9        1.0  0.8373869429036683  0.3351419878485917  0.46829787866195516  1.0000
