data_image0
_chemical_formula_structural       NC12NC2H8C12H10C7F3H5Zn2C4O8
_chemical_formula_sum              "N2 C37 H23 F3 Zn2 O8"
_cell_length_a       17.80743265337812
_cell_length_b       10.299137764757564
_cell_length_c       10.299327507215196
_cell_angle_alpha    85.5324423083902
_cell_angle_beta     91.5153373633688
_cell_angle_gamma    89.45463381285008

_space_group_name_H-M_alt    "P 1"
_space_group_IT_number       1

loop_
  _space_group_symop_operation_xyz
  'x, y, z'

loop_
  _atom_site_type_symbol
  _atom_site_label
  _atom_site_symmetry_multiplicity
  _atom_site_fract_x
  _atom_site_fract_y
  _atom_site_fract_z
  _atom_site_occupancy
  N   N1        1.0  0.7079423043027969  0.40694260818447625  0.6008639075094462  1.0000
  C   C1        1.0  0.657140553686486  0.4365110414408382  0.5321550045076522  1.0000
  C   C2        1.0  0.5939381591605151  0.4732920257176034  0.4466897779438723  1.0000
  C   C3        1.0  0.6056980432672189  0.52733042928172  0.3200514390880793  1.0000
  C   C4        1.0  0.5444022831747896  0.5626074506850613  0.2369827023662645  1.0000
  C   C5        1.0  0.4711925055199407  0.54410962394784  0.2798923113419529  1.0000
  C   C6        1.0  0.4584557407139981  0.4899523582623604  0.40699883527939384  1.0000
  C   C7        1.0  0.5206088205115884  0.4546785927729744  0.49005105911459657  1.0000
  C   C8        1.0  0.3806770268082293  0.4703400127992965  0.4527691231658293  1.0000
  C   C9        1.0  0.36187346243506135  0.49751506647018484  0.5798058624371447  1.0000
  C   C10       1.0  0.2886337393260067  0.47905881200425404  0.6227560212899013  1.0000
  C   C11       1.0  0.2332544138213714  0.4331731239178567  0.539507498869207  1.0000
  C   C12       1.0  0.157877731899809  0.4141638530864564  0.5838587759800808  1.0000
  N   N2        1.0  0.0972802174746633  0.39888167780899075  0.6195141517150538  1.0000
  C   C13       1.0  0.2513663565901654  0.40582908741003076  0.41301378848772674  1.0000
  C   C14       1.0  0.3245532729736669  0.424300155409141  0.3698077355337801  1.0000
  H   H1        1.0  0.6621726195470223  0.5421589706834333  0.28560935295743706  1.0000
  H   H2        1.0  0.5536256308885404  0.604718070482553  0.13918917517282958  1.0000
  H   H3        1.0  0.4245703673356123  0.5737543453857603  0.21429135768908125  1.0000
  H   H4        1.0  0.5120836231444621  0.4111825693307518  0.587720586985452  1.0000
  H   H5        1.0  0.403545043941357  0.5346903563610814  0.645367559952583  1.0000
  H   H6        1.0  0.2751769527296149  0.5008957845463402  0.7207587419641122  1.0000
  H   H7        1.0  0.2089780557395117  0.3699211351442302  0.34786463993946004  1.0000
  H   H8        1.0  0.3374813287462163  0.40092748390983957  0.2721088490295758  1.0000
  C   C15       1.0  0.9025425227901992  0.02151365919337156  0.6103272964985422  1.0000
  C   C16       1.0  0.902535021993605  0.0313854189168008  0.4735762994010744  1.0000
  C   C17       1.0  0.9026055043688148  0.9192575431780488  0.4041016028357507  1.0000
  C   C18       1.0  0.9026835438075688  0.796127202351507  0.47322627997216005  1.0000
  C   C19       1.0  0.9026871791106418  0.7843005049784812  0.6100623164212484  1.0000
  C   C20       1.0  0.9026179056956328  0.897511335315726  0.6777704650052252  1.0000
  C   C21       1.0  0.9025966795645343  0.9307458216225316  0.25943251610451656  1.0000
  C   C22       1.0  0.9479188462066827  0.8475022798225327  0.19173744083253363  1.0000
  C   C23       1.0  0.9478171706923064  0.8585684343744044  0.05555704654432447  1.0000
  C   C24       1.0  0.9025820818174831  0.9525015555030069  0.9855413264039137  1.0000
  C   C25       1.0  0.857354308738749  0.035629036080620846  0.05156375667802493  1.0000
  C   C26       1.0  0.8572670873857914  0.025061689189478153  0.18773597994076963  1.0000
  H   H9        1.0  0.9025070682454233  0.34519305843810244  0.6629289364192106  1.0000
  H   H10       1.0  0.9035139639518679  0.12649896326410381  0.42082130131875717  1.0000
  H   H11       1.0  0.9017030413965856  0.7093857889712322  0.42013093764659937  1.0000
  H   H12       1.0  0.9026216345760816  0.8891815335934632  0.7832495485396536  1.0000
  H   H13       1.0  0.9022163437913074  0.5546965582434675  0.8683102747565574  1.0000
  H   H14       1.0  0.9841189497724878  0.775081656168132  0.2440938850722263  1.0000
  H   H15       1.0  0.9830003060106239  0.7944383789579272  0.004288093819756478  1.0000
  H   H16       1.0  0.9025765478329627  0.9608745507819024  0.8801318838958654  1.0000
  H   H17       1.0  0.8221656388202463  0.10815076880042973  0.9971870650447499  1.0000
  H   H18       1.0  0.8210726492100371  0.08942044140823291  0.23688902321145  1.0000
  C   C27       1.0  0.9026868067740559  0.40295834725635915  0.2288166452365492  1.0000
  C   C28       1.0  0.9757024096207554  0.453523462156844  0.22702522791725022  1.0000
  C   C29       1.0  0.011987745048963161  0.4812473931954999  0.10879823635617525  1.0000
  C   C30       1.0  0.9755134748825987  0.4533896472134922  0.9917787689383246  1.0000
  C   C31       1.0  0.9025429256850186  0.40285583991576024  0.991572966894783  1.0000
  C   C32       1.0  0.8664412901196914  0.37841705306415996  0.11058015234236418  1.0000
  C   C33       1.0  0.09140048873564921  0.5311063745481022  0.10832159889199522  1.0000
  F   F1        1.0  0.10453757797768959  0.6066790844960503  0.21181502174128997  1.0000
  F   F2        1.0  0.1410043044832039  0.42652676827950975  0.11860361144006104  1.0000
  F   F3        1.0  0.10433119003502167  0.6066657360220118  0.9941617378876297  1.0000
  H   H19       1.0  0.7654070278683637  0.30535405935303905  0.43962852061909596  1.0000
  H   H20       1.0  0.004516196542549533  0.47119425061351894  0.3177954945094601  1.0000
  H   H21       1.0  0.004197668212632344  0.47096515443357556  0.9007662997047357  1.0000
  H   H22       1.0  0.8101640778883438  0.33944691274475325  0.11115591676252201  1.0000
  H   H23       1.0  0.8749791988772888  0.38128608373250117  0.6642289629717313  1.0000
  Zn  Zn1       1.0  0.8202968171508835  0.4046129292490812  0.6062534534381334  1.0000
  Zn  Zn2       1.0  0.9849256981248652  0.40120076104181623  0.6141352027745253  1.0000
  C   C34       1.0  0.9025674444442693  0.3977011546337934  0.8473973946645665  1.0000
  C   C35       1.0  0.9026568688604807  0.40811413712553746  0.3729914745167817  1.0000
  C   C36       1.0  0.9026569507691911  0.6401183312414545  0.6049369086121381  1.0000
  C   C37       1.0  0.9025673060502302  0.16569540124962745  0.6154520276621243  1.0000
  O   O1        1.0  0.9651226227076071  0.40854390107267324  0.424368949042091  1.0000
  O   O2        1.0  0.9650512018881029  0.39468065422150644  0.8020016119996076  1.0000
  O   O3        1.0  0.9651226369189647  0.5904356073901746  0.6062130132731405  1.0000
  O   O4        1.0  0.9650511315201935  0.21278895837237677  0.6201574476987961  1.0000
  O   O5        1.0  0.8401713275757993  0.5930247330843412  0.6002312058173764  1.0000
  O   O6        1.0  0.8400998928505099  0.3972713403497423  0.7960197347544427  1.0000
  O   O7        1.0  0.8401713140059842  0.41113454215029366  0.41838551037653016  1.0000
  O   O8        1.0  0.8400998227953665  0.2153795901474458  0.6141741064065114  1.0000
