data_image0
_chemical_formula_structural       NC12NC2H8C9H10C9H10Zn2C4O8
_chemical_formula_sum              "N2 C36 H28 Zn2 O8"
_cell_length_a       17.80743265337812
_cell_length_b       10.297183801781406
_cell_length_c       10.297187173949778
_cell_angle_alpha    85.54101213387429
_cell_angle_beta     91.50840816747596
_cell_angle_gamma    89.4353606467078

_space_group_name_H-M_alt    "P 1"
_space_group_IT_number       1

loop_
  _space_group_symop_operation_xyz
  'x, y, z'

loop_
  _atom_site_type_symbol
  _atom_site_label
  _atom_site_symmetry_multiplicity
  _atom_site_fract_x
  _atom_site_fract_y
  _atom_site_fract_z
  _atom_site_occupancy
  N   N1        1.0  0.7077663439714275  0.4068594931943008  0.6004364894799421  1.0000
  C   C1        1.0  0.6569637167333537  0.4364158441863666  0.5317113677487542  1.0000
  C   C2        1.0  0.5937602314907978  0.4731817999660801  0.44622596693700034  1.0000
  C   C3        1.0  0.6055185901698715  0.5271978415074512  0.3195577905918552  1.0000
  C   C4        1.0  0.5442218627882952  0.5624601601532684  0.2364695023670822  1.0000
  C   C5        1.0  0.47101263887242495  0.5439698724800277  0.27938924400860365  1.0000
  C   C6        1.0  0.4582773892370853  0.48983506787038444  0.4065257059775129  1.0000
  C   C7        1.0  0.5204314368695346  0.4545760014553786  0.48959747788258046  1.0000
  C   C8        1.0  0.3804992426708179  0.4702307881074623  0.4523067877231701  1.0000
  C   C9        1.0  0.3616812207489882  0.4974447482681459  0.5793636344875208  1.0000
  C   C10       1.0  0.2884420403012719  0.4789960519444867  0.6223239284532323  1.0000
  C   C11       1.0  0.23307770482168522  0.43307918439305393  0.5390656186476701  1.0000
  C   C12       1.0  0.15770157362575582  0.41407772819689725  0.5834273555763141  1.0000
  N   N2        1.0  0.09710450195187612  0.3988018353426568  0.6190911402887402  1.0000
  C   C13       1.0  0.2512040993558515  0.40569634998370807  0.41255192114433537  1.0000
  C   C14       1.0  0.3243904885366083  0.4241597955493259  0.3693356841784674  1.0000
  H   H1        1.0  0.6619927257218252  0.5420203277051112  0.28510757361225814  1.0000
  H   H2        1.0  0.5534439577348262  0.6045535884622153  0.13865288790666774  1.0000
  H   H3        1.0  0.4243893859832375  0.5736033443621087  0.21377263459962337  1.0000
  H   H4        1.0  0.5119077733330573  0.4110968564533417  0.5872902374250057  1.0000
  H   H5        1.0  0.40334079299138537  0.5346448034902147  0.64493291463361  1.0000
  H   H6        1.0  0.2749739289555286  0.5008632156308346  0.7203420557412779  1.0000
  H   H7        1.0  0.2088275291869215  0.3697639974124378  0.3473951129354653  1.0000
  H   H8        1.0  0.33733014893649643  0.40075670193675794  0.2716216323726204  1.0000
  C   C15       1.0  0.9024416006440664  0.021355011908461785  0.6099481461493006  1.0000
  C   C16       1.0  0.9002871194157381  0.031242755902140207  0.47315395538164284  1.0000
  C   C17       1.0  0.8991831419085127  0.9196920525022937  0.4030702828399746  1.0000
  C   C18       1.0  0.9002784563238977  0.7960717771377285  0.47262374637410387  1.0000
  C   C19       1.0  0.902436446210621  0.7842962012265862  0.609590999346268  1.0000
  C   C20       1.0  0.903503218284951  0.8974141432755487  0.6773590741371782  1.0000
  C   C21       1.0  0.8968527104709991  0.9398185449305994  0.2551176963210475  1.0000
  C   C22       1.0  0.8528817786525109  0.8420027382221686  0.18070057182797616  1.0000
  C   C23       1.0  0.9384710981394665  0.8405391107513304  0.18067496801626315  1.0000
  H   H9        1.0  0.9032789248378245  0.3450832533530048  0.6626596773393398  1.0000
  H   H10       1.0  0.8994555285546196  0.12648233268324605  0.4203438581532899  1.0000
  H   H11       1.0  0.8994681359889846  0.708482525924849  0.4212800880008314  1.0000
  H   H12       1.0  0.9051650692511484  0.889058106076239  0.7828986468528027  1.0000
  H   H13       1.0  0.906502301893632  0.5548392106644471  0.8682830951969873  1.0000
  H   H14       1.0  0.896104358555526  0.040543747052850465  0.20756316713678302  1.0000
  H   H15       1.0  0.8277973965013251  0.758891646006197  0.238613232523732  1.0000
  H   H16       1.0  0.8264016832773634  0.8834124192654472  0.08752738905317003  1.0000
  H   H17       1.0  0.9653776312365635  0.7565397432447839  0.2385727538733189  1.0000
  H   H18       1.0  0.9620141936963019  0.8810909984676146  0.08748562243651836  1.0000
  C   C24       1.0  0.9025383356227924  0.4027765922730462  0.22832121321763132  1.0000
  C   C25       1.0  0.8264044082810281  0.44003313977928094  0.22117475954712007  1.0000
  C   C26       1.0  0.7873987533222776  0.4591205493197523  0.10089701702603215  1.0000
  C   C27       1.0  0.8261092757691179  0.44017706614828955  0.9859378291252678  1.0000
  C   C28       1.0  0.9023397054550835  0.40287464260808137  0.9912179618726604  1.0000
  C   C29       1.0  0.9400564225068448  0.3844167243993448  0.11277466805549352  1.0000
  C   C30       1.0  0.7050544235761905  0.499415903395269  0.10259978452939977  1.0000
  C   C31       1.0  0.6524594794950532  0.4482542858263805  0.999832364979695  1.0000
  C   C32       1.0  0.6747981523083327  0.5911067834649877  0.9897361549918369  1.0000
  H   H19       1.0  0.9318772018138951  0.38843219675495577  0.5586124728207102  1.0000
  H   H20       1.0  0.7970125929998645  0.45441653547689564  0.3098381971646349  1.0000
  H   H21       1.0  0.7975330467462879  0.45415800744936696  0.89195527468799  1.0000
  H   H22       1.0  0.998795199202083  0.35567187221707064  0.11756095317314341  1.0000
  H   H23       1.0  0.046314672788927425  0.3324043043946905  0.7939753685251407  1.0000
  H   H24       1.0  0.6785877240862269  0.5123686066550319  0.1974031483564307  1.0000
  H   H25       1.0  0.6779019329362489  0.3890945243512467  0.9265538496280104  1.0000
  H   H26       1.0  0.5940708407449921  0.43188543909011856  0.03216155339320581  1.0000
  H   H27       1.0  0.7138104964491437  0.6187219329646285  0.9103256902640209  1.0000
  H   H28       1.0  0.6294648141444061  0.6582293370330783  0.016162103820888785  1.0000
  Zn  Zn1       1.0  0.8201209276098501  0.40453075990559784  0.6058273088564343  1.0000
  Zn  Zn2       1.0  0.9847499131325891  0.4011199735705282  0.6137109211303571  1.0000
  C   C33       1.0  0.9023756028125921  0.3976809973322719  0.847016479677206  1.0000
  C   C34       1.0  0.9024970356289524  0.40797133799246876  0.37252196312416874  1.0000
  C   C35       1.0  0.9024348907128695  0.6400834880826398  0.6044820936009292  1.0000
  C   C36       1.0  0.9024376915448484  0.16556728767585782  0.6150564164939325  1.0000
  O   O1        1.0  0.9649590170468361  0.408414699145645  0.42390884450786936  1.0000
  O   O2        1.0  0.9648632122550395  0.39464794822642  0.8016127041298373  1.0000
  O   O3        1.0  0.9649102454284018  0.5903910427275949  0.6057644304386254  1.0000
  O   O4        1.0  0.9649119277220488  0.21267161508864652  0.6197570181096328  1.0000
  O   O5        1.0  0.8399588568405989  0.5929791195528265  0.5997812091800356  1.0000
  O   O6        1.0  0.8399118236712716  0.39723758578324175  0.7956294128806372  1.0000
  O   O7        1.0  0.840007628919971  0.4110042912321408  0.4179239915562496  1.0000
  O   O8        1.0  0.8399605395668175  0.21526119789631326  0.6137722625503383  1.0000
