data_image0
_chemical_formula_structural       NC12NC2H8C6NCSNH8C9NC2H9Zn2C4O8
_chemical_formula_sum              "N5 C36 H25 S1 Zn2 O8"
_cell_length_a       17.80743265337812
_cell_length_b       9.27507834575679
_cell_length_c       9.273598843048156
_cell_angle_alpha    84.94141642220173
_cell_angle_beta     91.13569736745053
_cell_angle_gamma    90.00966593732542

_space_group_name_H-M_alt    "P 1"
_space_group_IT_number       1

loop_
  _space_group_symop_operation_xyz
  'x, y, z'

loop_
  _atom_site_type_symbol
  _atom_site_label
  _atom_site_symmetry_multiplicity
  _atom_site_fract_x
  _atom_site_fract_y
  _atom_site_fract_z
  _atom_site_occupancy
  N   N1        1.0  0.7211380441204532  0.5743196280037579  0.4414327763969432  1.0000
  C   C1        1.0  0.6707640115882836  0.6077362241239388  0.3650046559385116  1.0000
  C   C2        1.0  0.6080936532999209  0.6493040128388612  0.2699376901296151  1.0000
  C   C3        1.0  0.6206393089076586  0.7103841878277246  0.12907323449300678  1.0000
  C   C4        1.0  0.5598580322541025  0.7502615182690711  0.036673313345621406  1.0000
  C   C5        1.0  0.48638096095665134  0.7293569293847137  0.08440376367257896  1.0000
  C   C6        1.0  0.472855970663578  0.6681408084716185  0.22578877320005653  1.0000
  C   C7        1.0  0.5344946483552984  0.6282672329277028  0.31817033702239983  1.0000
  C   C8        1.0  0.39479280483846  0.645974374802565  0.2767009654225083  1.0000
  C   C9        1.0  0.3756546153202698  0.6750866529412392  0.41778178507139985  1.0000
  C   C10       1.0  0.3021476751253727  0.6542278932664145  0.46555717644122185  1.0000
  C   C11       1.0  0.24683113305405013  0.6039672925562729  0.3731836630468326  1.0000
  C   C12       1.0  0.1711787903703158  0.5824825685204023  0.42251744448173834  1.0000
  N   N2        1.0  0.1103596634929884  0.5652102959271281  0.46217841101274937  1.0000
  C   C13       1.0  0.2652746812338991  0.5746627749028288  0.23270669946655542  1.0000
  C   C14       1.0  0.3387298764270316  0.5955401385896226  0.18464693073887184  1.0000
  H   H1        1.0  0.6773283266146671  0.7271424500664472  0.0907616757488956  1.0000
  H   H2        1.0  0.569690295862182  0.7978520906217614  0.9278929356800898  1.0000
  H   H3        1.0  0.4401750737887687  0.7628321133446248  0.011428820603136547  1.0000
  H   H4        1.0  0.5253532875480315  0.5791390717695817  0.42681679386254334  1.0000
  H   H5        1.0  0.4172825400577328  0.7158222173176492  0.49052690141676836  1.0000
  H   H6        1.0  0.288437605809134  0.6776558663683125  0.5743917961131983  1.0000
  H   H7        1.0  0.22293552250781493  0.5353312482988017  0.16041645416185557  1.0000
  H   H8        1.0  0.3519014925856373  0.570404060360596  0.07615419516214339  1.0000
  C   C15       1.0  0.9135537325996003  0.14618199456037373  0.4530220719949891  1.0000
  C   C16       1.0  0.889342405865762  0.23047223071016343  0.3273750556474291  1.0000
  C   C17       1.0  0.8726212894001488  0.16674933186282792  0.19989448562705636  1.0000
  C   C18       1.0  0.8805543322941991  0.017035453050247673  0.19447397920363274  1.0000
  C   C19       1.0  0.9020503415291524  0.9313171728923015  0.3203762950118314  1.0000
  C   C20       1.0  0.9179510519011288  0.9933366137548368  0.4506019312157121  1.0000
  N   N3        1.0  0.8626059971001292  0.9490261277758598  0.06473526971540733  1.0000
  C   C21       1.0  0.8728247047837198  0.01643567335444507  0.9211007890478169  1.0000
  S   S1        1.0  0.8242367509935817  0.9586850856552828  0.786027514473969  1.0000
  N   N4        1.0  0.9306752981114562  0.12131893710920605  0.8918355138466185  1.0000
  H   H9        1.0  0.9174701762533847  0.40636630202058766  0.691731855903366  1.0000
  H   H10       1.0  0.8846590948512156  0.3469736544263857  0.326807706214012  1.0000
  H   H11       1.0  0.85327243468723  0.23461547972827868  0.10555349905532996  1.0000
  H   H12       1.0  0.9051780972368173  0.814988973845658  0.3168654180830217  1.0000
  H   H13       1.0  0.9830073981940254  0.694273527017087  0.656601416419134  1.0000
  H   H14       1.0  0.8413796850956171  0.8436055135669992  0.07551456359349618  1.0000
  H   H15       1.0  0.9690579646507204  0.1458588083118677  0.9725535239540077  1.0000
  H   H16       1.0  0.9376374183824696  0.17024297215485773  0.7871671935411007  1.0000
  C   C22       1.0  0.917283944004702  0.5730236293391828  0.0280445140781993  1.0000
  C   C23       1.0  0.8675589575761525  0.6652829323306264  0.09151049705563108  1.0000
  C   C24       1.0  0.814070965095499  0.7462865055259891  0.007643709190254144  1.0000
  C   C25       1.0  0.8088488066332876  0.7373346129414404  0.8576733935448386  1.0000
  C   C26       1.0  0.8591522316754847  0.6472262931222597  0.7928220627245368  1.0000
  C   C27       1.0  0.9142208212219289  0.5664949551671246  0.8755795047639157  1.0000
  C   C28       1.0  0.7514758514607685  0.8230316526965447  0.7687525220280653  1.0000
  C   C29       1.0  0.7695075904214512  0.8923542001497242  0.6329346523904253  1.0000
  C   C30       1.0  0.7146534293336059  0.972439332164414  0.5512481031852383  1.0000
  N   N5        1.0  0.6441630286670993  0.9832553591492341  0.6027853331850599  1.0000
  C   C31       1.0  0.6249395057136502  0.9175779966778852  0.7336191885889658  1.0000
  C   C32       1.0  0.6780588091420638  0.836526105301751  0.8189223990553125  1.0000
  H   H17       1.0  0.02882132380482405  0.4686231886414498  0.32262516673797825  1.0000
  H   H18       1.0  0.8689285622237847  0.6725870513516816  0.2074826411063393  1.0000
  H   H19       1.0  0.7768427757438815  0.8165862593163531  0.060343209979435875  1.0000
  H   H20       1.0  0.8559036160060656  0.6407921542174897  0.6767578446161289  1.0000
  H   H21       1.0  0.08224899331950941  0.41929615552139565  0.7918924694383955  1.0000
  H   H22       1.0  0.8256654602216739  0.8863933290476933  0.5911721067233686  1.0000
  H   H23       1.0  0.7282359667151957  0.026400012258694705  0.4468351091489713  1.0000
  H   H24       1.0  0.5682757646322683  0.9279806883395583  0.7714165252018335  1.0000
  H   H25       1.0  0.6616268257332535  0.7834382858990596  0.9221481480204408  1.0000
  Zn  Zn1       1.0  0.8334589491035989  0.5716869563791125  0.44742784870837804  1.0000
  Zn  Zn2       1.0  0.9980386524009702  0.567831110825507  0.45619514304469333  1.0000
  C   C33       1.0  0.9147683358917614  0.561982700180629  0.7153935841641084  1.0000
  C   C34       1.0  0.9167310717532319  0.5775371438264822  0.18822963976576457  1.0000
  C   C35       1.0  0.9171367897402393  0.8332507284250839  0.4453086902369019  1.0000
  C   C36       1.0  0.9143625524715892  0.3062673832918057  0.4583146125883064  1.0000
  O   O1        1.0  0.9790026297976049  0.5775823543418463  0.24531639174238928  1.0000
  O   O2        1.0  0.9774089603879568  0.5590099071397072  0.6649605934277194  1.0000
  O   O3        1.0  0.9793206694486508  0.7780622787665628  0.44686508154931515  1.0000
  O   O4        1.0  0.9770908650216158  0.3585299951827714  0.4634117923993608  1.0000
  O   O5        1.0  0.8544066803200131  0.7809880733392873  0.44021119635426786  1.0000
  O   O6        1.0  0.8524949805295439  0.5619374353200928  0.6583066263378956  1.0000
  O   O7        1.0  0.8540886559986903  0.5805098456205329  0.23866068980982247  1.0000
  O   O8        1.0  0.8521768907750565  0.3614574753111166  0.4567561986887847  1.0000
