data_image0
_chemical_formula_structural       NC12NC2H8C6NCOCH9C6OCH8Zn2C4O8
_chemical_formula_sum              "N3 C33 H25 O10 Zn2"
_cell_length_a       17.80743265337812
_cell_length_b       10.300268703208216
_cell_length_c       9.273891588657152
_cell_angle_alpha    86.07587478402299
_cell_angle_beta     91.22048166911064
_cell_angle_gamma    89.41550465668445

_space_group_name_H-M_alt    "P 1"
_space_group_IT_number       1

loop_
  _space_group_symop_operation_xyz
  'x, y, z'

loop_
  _atom_site_type_symbol
  _atom_site_label
  _atom_site_symmetry_multiplicity
  _atom_site_fract_x
  _atom_site_fract_y
  _atom_site_fract_z
  _atom_site_occupancy
  N   N1        1.0  0.7116455942936796  0.39386837641095074  0.4479176892204346  1.0000
  C   C1        1.0  0.661041150138973  0.4227997360357465  0.3716833096735843  1.0000
  C   C2        1.0  0.5980841793996109  0.45878828070847333  0.27685733814228186  1.0000
  C   C3        1.0  0.6102079013978836  0.5116525428360663  0.13634851881492516  1.0000
  C   C4        1.0  0.5491508679626974  0.5461594045696117  0.04418134299494558  1.0000
  C   C5        1.0  0.4758178823274004  0.5280594426749987  0.0917906987563093  1.0000
  C   C6        1.0  0.4627159028909074  0.4750806490665329  0.23281901252561066  1.0000
  C   C7        1.0  0.5246303049547391  0.4405768906231715  0.3249678654325687  1.0000
  C   C8        1.0  0.3848057206496061  0.4558926781788992  0.2836024116277214  1.0000
  C   C9        1.0  0.3656053710725568  0.48423531909847917  0.4245832885022405  1.0000
  C   C10       1.0  0.29224230047423644  0.46617729802410657  0.4722376572174898  1.0000
  C   C11       1.0  0.2371339645638888  0.41953001322931005  0.37984103619436405  1.0000
  C   C12       1.0  0.16162989214395404  0.4009319607641515  0.4290500018005412  1.0000
  N   N2        1.0  0.1009299645331297  0.38598037676783625  0.46861062489946703  1.0000
  C   C13       1.0  0.2556411078735922  0.39102341632571624  0.23946268837646967  1.0000
  C   C14       1.0  0.3289521438236109  0.4090938902672403  0.19152436310188858  1.0000
  H   H1        1.0  0.6667813799788899  0.5261617340351654  0.09813409849706911  1.0000
  H   H2        1.0  0.5586550322968152  0.5873632728681688  0.9356767986126249  1.0000
  H   H3        1.0  0.4293835732591949  0.5570957295736936  0.01900519428753711  1.0000
  H   H4        1.0  0.5158252092822241  0.3979866501225915  0.4333342984877486  1.0000
  H   H5        1.0  0.4070631311480811  0.5220102675333604  0.49734987979679324  1.0000
  H   H6        1.0  0.278479072178433  0.488914897950145  0.5809979298251302  1.0000
  H   H7        1.0  0.21346487914384574  0.3545194487558767  0.16715436426966446  1.0000
  H   H8        1.0  0.3421863178155241  0.3848235854692925  0.08310068443267005  1.0000
  C   C15       1.0  0.9063676623203558  0.008575193930080438  0.4582768982364569  1.0000
  C   C16       1.0  0.919467011495747  0.016478564318358924  0.3091420521445345  1.0000
  C   C17       1.0  0.9270915522571672  0.9031424519131506  0.23435522485958615  1.0000
  C   C18       1.0  0.9192969786715672  0.7813227829362016  0.3091689721728019  1.0000
  C   C19       1.0  0.9062150392663559  0.7712635696080442  0.4582642002091417  1.0000
  C   C20       1.0  0.9001019669132727  0.8854796730512845  0.5321336197633015  1.0000
  N   N3        1.0  0.939334478654057  0.9096645923687147  0.08124308803950386  1.0000
  C   C21       1.0  0.9836570679608979  0.007244935815876374  0.006149979576825615  1.0000
  O   O1        1.0  0.025877058485832327  0.07992562641107748  0.07495406575539687  1.0000
  C   C22       1.0  0.9841578154587257  0.016808963641475216  0.844711423498175  1.0000
  H   H9        1.0  0.9002960246708573  0.3330383910224328  0.5145815395465543  1.0000
  H   H10       1.0  0.9222535660812752  0.11079495021479535  0.2506528471541243  1.0000
  H   H11       1.0  0.9241314665435816  0.6943832419877508  0.2504249650637944  1.0000
  H   H12       1.0  0.8900192837378476  0.8785743615002274  0.6471642233963502  1.0000
  H   H13       1.0  0.9001483327689577  0.44008769926350283  0.5143603970953254  1.0000
  H   H14       1.0  0.918812883165719  0.8341858683337726  0.022238001278249264  1.0000
  H   H15       1.0  0.9267868394784631  0.0006043988863062566  0.8007971745614961  1.0000
  H   H16       1.0  0.0029026544527706033  0.11474761884839357  0.8036789258920822  1.0000
  H   H17       1.0  0.02304421724131611  0.9419731507101248  0.807100936653943  1.0000
  C   C23       1.0  0.9075226017255119  0.38645513082049066  0.03506069428394354  1.0000
  C   C24       1.0  0.9690264241895465  0.4400593732676801  0.1069033789770999  1.0000
  C   C25       1.0  0.026267539490973935  0.5034470178760782  0.03013597004468882  1.0000
  C   C26       1.0  0.022209501196099213  0.513551673807741  0.8784795870496418  1.0000
  C   C27       1.0  0.9622839445198595  0.4591291412391234  0.8053786038831792  1.0000
  C   C28       1.0  0.9050600958321537  0.39338356271445174  0.8814803961499003  1.0000
  O   O2        1.0  0.08572030301803069  0.5554939295987349  0.10850254543752302  1.0000
  C   C29       1.0  0.1475625650182235  0.6225843649401361  0.04471306810519904  1.0000
  H   H18       1.0  0.7288697437959473  0.31031503990355724  0.13658189368052787  1.0000
  H   H19       1.0  0.9718859548413333  0.43547400767512356  0.22398935981457813  1.0000
  H   H20       1.0  0.06547019105868901  0.5622637943457953  0.8158567305038793  1.0000
  H   H21       1.0  0.9616765102508459  0.46583432631635646  0.6882650986879613  1.0000
  H   H22       1.0  0.7859234801798208  0.33695051249844976  0.5997052437785193  1.0000
  H   H23       1.0  0.12738164239673577  0.7108716169894942  0.9792442209190013  1.0000
  H   H24       1.0  0.1788956033103415  0.5574994398648043  0.9759663337514564  1.0000
  H   H25       1.0  0.18600743014335053  0.6528456070966704  0.1316000123155916  1.0000
  Zn  Zn1       1.0  0.8239846344005243  0.3915886710125851  0.45389753186571125  1.0000
  Zn  Zn2       1.0  0.988590889852429  0.3882495854796162  0.462642537671792  1.0000
  C   C30       1.0  0.9055249341125969  0.3869006022376531  0.7214889645003568  1.0000
  C   C31       1.0  0.9070523868961607  0.39293925748444036  0.19505134195620988  1.0000
  C   C32       1.0  0.9062567402286325  0.6270522818469506  0.4525234549621624  1.0000
  C   C33       1.0  0.9063205247001722  0.1527860194216939  0.46401692537126404  1.0000
  O   O3        1.0  0.9693617957288817  0.3938425586200729  0.25206434907026987  1.0000
  O   O4        1.0  0.9681478658413692  0.3834620293760005  0.6711127996021125  1.0000
  O   O5        1.0  0.9687379620873807  0.5773875771414663  0.4539212029138664  1.0000
  O   O6        1.0  0.9687716436264194  0.1999170203992302  0.4692558347163942  1.0000
  O   O7        1.0  0.8438038244545191  0.5799212372337887  0.44728423182928645  1.0000
  O   O8        1.0  0.8432137281164459  0.3859972490625885  0.6644757516488513  1.0000
  O   O9        1.0  0.8444276631039332  0.3963777188687352  0.24542556841451146  1.0000
  O   O10       1.0  0.8438375106859072  0.2024521722440873  0.46261716211093584  1.0000
