data_image0
_chemical_formula_structural       NC12NC2H8C7N4H6C9H10Zn2C4O8
_chemical_formula_sum              "N6 C34 H24 Zn2 O8"
_cell_length_a       17.80743265337812
_cell_length_b       9.274187458527196
_cell_length_c       10.297187173949778
_cell_angle_alpha    85.92395239453673
_cell_angle_beta     91.50840816747596
_cell_angle_gamma    89.89930755814211

_space_group_name_H-M_alt    "P 1"
_space_group_IT_number       1

loop_
  _space_group_symop_operation_xyz
  'x, y, z'

loop_
  _atom_site_type_symbol
  _atom_site_label
  _atom_site_symmetry_multiplicity
  _atom_site_fract_x
  _atom_site_fract_y
  _atom_site_fract_z
  _atom_site_occupancy
  N   N1        1.0  0.7145026680095176  0.5611643748541448  0.6101762229534151  1.0000
  C   C1        1.0  0.6638415624789276  0.593962477609048  0.5416557207897847  1.0000
  C   C2        1.0  0.6008141199704898  0.6347609373332872  0.45642485187117554  1.0000
  C   C3        1.0  0.6128311182371257  0.6947014787540671  0.3301306303171452  1.0000
  C   C4        1.0  0.5517032338749708  0.7338313818544908  0.24728646425732848  1.0000
  C   C5        1.0  0.4784054747713812  0.713313072431333  0.29007819704319915  1.0000
  C   C6        1.0  0.46541101688720565  0.6532407419640058  0.4168398820204553  1.0000
  C   C7        1.0  0.5273962370725638  0.6141144478002989  0.4996675542758664  1.0000
  C   C8        1.0  0.3875390011167602  0.6314862573771634  0.46248524270743285  1.0000
  C   C9        1.0  0.36885128506761283  0.6616850549877871  0.5897304925923552  1.0000
  C   C10       1.0  0.29552376857986  0.6412128986691732  0.6325630656406651  1.0000
  C   C11       1.0  0.23993957397422933  0.5902598517067976  0.5489868718857456  1.0000
  C   C12       1.0  0.1644724600136726  0.5691743086036709  0.5932170611226304  1.0000
  N   N2        1.0  0.1038022443160044  0.552222950039795  0.6287750903380156  1.0000
  C   C13       1.0  0.2579348540321062  0.5598736576560057  0.4222836021399905  1.0000
  C   C14       1.0  0.3312096498752137  0.580362180919018  0.3791951882009994  1.0000
  H   H1        1.0  0.6693762268113042  0.7111497008476706  0.29578302988573757  1.0000
  H   H2        1.0  0.5611268805573609  0.7805416333112296  0.14976126395354883  1.0000
  H   H3        1.0  0.4319241128598905  0.7461967547246557  0.22466674111217522  1.0000
  H   H4        1.0  0.5186643867121357  0.5658664937191282  0.5970593063004666  1.0000
  H   H5        1.0  0.4106889785988969  0.7029652263455104  0.6555573099159764  1.0000
  H   H6        1.0  0.2821603615781524  0.6654784611445839  0.7307325800054987  1.0000
  H   H7        1.0  0.2153862325875927  0.5200002310556004  0.3568780330997703  1.0000
  H   H8        1.0  0.3440372515920346  0.5543922271417849  0.28131911602613613  1.0000
  C   C15       1.0  0.9073320522857732  0.13337761616113597  0.6170190197126568  1.0000
  C   C16       1.0  0.9462484911896956  0.21414391845834335  0.5200176811611383  1.0000
  C   C17       1.0  0.9901002382706319  0.14605779739292712  0.43214058619030626  1.0000
  C   C18       1.0  0.9964009314545085  0.9950380700364035  0.43882847314559004  1.0000
  C   C19       1.0  0.9564852572233445  0.9130963734924571  0.5339118387835509  1.0000
  C   C20       1.0  0.9109799708030987  0.9799984354403937  0.6219437284388085  1.0000
  C   C21       1.0  0.043976839515476485  0.9249055551034154  0.3451798036592786  1.0000
  N   N3        1.0  0.08011562453089316  0.9967951694103415  0.24721349638082635  1.0000
  N   N4        1.0  0.11595295270050299  0.895888367922717  0.1878502857687614  1.0000
  N   N5        1.0  0.10276561640473014  0.7670103371295872  0.24636346607043058  1.0000
  N   N6        1.0  0.05803076475551161  0.782294045711461  0.3447668725695714  1.0000
  H   H9        1.0  0.8089111888790065  0.40514413484277867  0.7426572466578083  1.0000
  H   H10       1.0  0.9442769394816685  0.33119784206949254  0.5139568518504269  1.0000
  H   H11       1.0  0.01988603871227901  0.21225828970935035  0.3596165115878769  1.0000
  H   H12       1.0  0.9588565693358968  0.7963690631566358  0.5379362220062591  1.0000
  H   H13       1.0  0.86297054324582  0.6845814288063485  0.8190908928765896  1.0000
  H   H14       1.0  0.03923067708578043  0.6975057293418168  0.4074815128702636  1.0000
  C   C22       1.0  0.9092551099163957  0.556633659814614  0.23803268063684468  1.0000
  C   C23       1.0  0.8332995743598497  0.5979765195516111  0.23114415524176324  1.0000
  C   C24       1.0  0.794385313727494  0.6191574433943869  0.11099855547019799  1.0000
  C   C25       1.0  0.8330051309961196  0.5981362318192431  0.9959082212267885  1.0000
  C   C26       1.0  0.90905694923326  0.5567424643475045  0.0009301080974932763  1.0000
  C   C27       1.0  0.9466852860887586  0.5362600746839676  0.12235902951951783  1.0000
  C   C28       1.0  0.7122339261789721  0.6638724071552651  0.11298028900451151  1.0000
  C   C29       1.0  0.6593940100619462  0.607099364008568  0.009858675932566285  1.0000
  C   C30       1.0  0.6824166891447924  0.7656199776527677  0.0007514383756799248  1.0000
  H   H15       1.0  0.938525292278866  0.5407159655672553  0.5682246335288688  1.0000
  H   H16       1.0  0.8039766296479619  0.6139374915329439  0.31990716956982834  1.0000
  H   H17       1.0  0.8044958455105921  0.613650608053512  0.9020224572953417  1.0000
  H   H18       1.0  0.005286426694775637  0.5043624762354377  0.12694631310194393  1.0000
  H   H19       1.0  0.05269449052308506  0.47854291276835137  0.8031996463343254  1.0000
  H   H20       1.0  0.6858292468173506  0.6782457678106963  0.20787332481237808  1.0000
  H   H21       1.0  0.68455319475794  0.5414509375049752  0.9361705956513986  1.0000
  H   H22       1.0  0.6009269940067747  0.5889351759672461  0.04207454229419394  1.0000
  H   H23       1.0  0.721561260132911  0.796263967200882  0.9215321542151189  1.0000
  H   H24       1.0  0.6374047471638437  0.8401045582997069  0.027642078799716696  1.0000
  Zn  Zn1       1.0  0.8268461012081794  0.558580225216994  0.6155509204345282  1.0000
  Zn  Zn2       1.0  0.9914587552052125  0.5547953425458327  0.6234109197250652  1.0000
  C   C31       1.0  0.9090679783806269  0.5509791780922337  0.8566926701289235  1.0000
  C   C32       1.0  0.909238683401841  0.5623981672105691  0.3822693939349029  1.0000
  C   C33       1.0  0.9102879377859365  0.8199684657688255  0.6158364442844506  1.0000
  C   C34       1.0  0.9080186603451905  0.29340714891391895  0.6231256762759358  1.0000
  O   O1        1.0  0.9717027877214134  0.5628901563828224  0.4336593447221124  1.0000
  O   O2        1.0  0.9715410649786116  0.5476134630125513  0.8112678966851437  1.0000
  O   O3        1.0  0.9725253551553613  0.7648257342004159  0.6167747587263461  1.0000
  O   O4        1.0  0.9707184414432478  0.34567789678465544  0.6281523826637665  1.0000
  O   O5        1.0  0.8475863587959327  0.7676976722713342  0.6108094548067722  1.0000
  O   O6        1.0  0.8466020760963124  0.5504871329966905  0.805302533579954  1.0000
  O   O7        1.0  0.8467637990782961  0.5657637759094336  0.42769241959971027  1.0000
  O   O8        1.0  0.8457794527273351  0.34855150601473217  0.6221855548694524  1.0000
