data_image0
_chemical_formula_structural       NC12NC2H8C7NC2OH7C12H10Zn2C4O8
_chemical_formula_sum              "N3 C39 H25 O9 Zn2"
_cell_length_a       17.80743265337812
_cell_length_b       10.300333997791364
_cell_length_c       10.299141136925906
_cell_angle_alpha    85.54368638695757
_cell_angle_beta     91.556080336852
_cell_angle_gamma    89.43519355652523

_space_group_name_H-M_alt    "P 1"
_space_group_IT_number       1

loop_
  _space_group_symop_operation_xyz
  'x, y, z'

loop_
  _atom_site_type_symbol
  _atom_site_label
  _atom_site_symmetry_multiplicity
  _atom_site_fract_x
  _atom_site_fract_y
  _atom_site_fract_z
  _atom_site_occupancy
  N   N1        1.0  0.7070967186966627  0.40697148059937893  0.6012728746374789  1.0000
  C   C1        1.0  0.6562609822599063  0.4365468422139078  0.532570613162199  1.0000
  C   C2        1.0  0.5930163133508014  0.473336444276498  0.4471136483571394  1.0000
  C   C3        1.0  0.6047136453848899  0.5273876816710827  0.3204873942853368  1.0000
  C   C4        1.0  0.5433768864558299  0.562673145104474  0.23742652692515565  1.0000
  C   C5        1.0  0.470188339485721  0.5441709959719063  0.2803319773133153  1.0000
  C   C6        1.0  0.4575143425734096  0.49000083772705816  0.4074263993096654  1.0000
  C   C7        1.0  0.5197084137742357  0.45471863240953847  0.49047075406991114  1.0000
  C   C8        1.0  0.3797582521106083  0.47038386515763486  0.453192291730919  1.0000
  C   C9        1.0  0.3610019124885829  0.49753469798424055  0.5802445867415598  1.0000
  C   C10       1.0  0.287783428862927  0.4790741088050088  0.6231906031607861  1.0000
  C   C11       1.0  0.23237851235143542  0.4332082075260715  0.5399223377024873  1.0000
  C   C12       1.0  0.15702375342794261  0.41419445373410846  0.5842693539318087  1.0000
  N   N2        1.0  0.0964438635906704  0.3989086744688237  0.6199213042011902  1.0000
  C   C13       1.0  0.25044348662725374  0.4058883280839969  0.41341304109810983  1.0000
  C   C14       1.0  0.32360905513361843  0.42436376988798963  0.37021112289831115  1.0000
  H   H1        1.0  0.6611711841461118  0.542219695166813  0.28604863963754057  1.0000
  H   H2        1.0  0.5525518571567634  0.6047936224508841  0.13964246140714276  1.0000
  H   H3        1.0  0.4235334830999976  0.573822135262466  0.21473784559201636  1.0000
  H   H4        1.0  0.5112318065339131  0.4112129645175657  0.5881303429265683  1.0000
  H   H5        1.0  0.402693449908998  0.5346942601614724  0.6458221858823165  1.0000
  H   H6        1.0  0.2743629074103575  0.50089227445577  0.7212056211533162  1.0000
  H   H7        1.0  0.20803515830981964  0.36999586048459365  0.34824844244940145  1.0000
  H   H8        1.0  0.3365012640464357  0.4010100705227342  0.27249943188407144  1.0000
  C   C15       1.0  0.901774362847137  0.021594746804471265  0.610605649427342  1.0000
  C   C16       1.0  0.8819191672401114  0.03127657937314399  0.4772760484137979  1.0000
  C   C17       1.0  0.8719015990966569  0.9190729259988973  0.4100063005338006  1.0000
  C   C18       1.0  0.8819171054450449  0.7959850070535593  0.4772645418842911  1.0000
  C   C19       1.0  0.9017734356491054  0.7842752379829847  0.6106000642470015  1.0000
  C   C20       1.0  0.911591467800538  0.8976455026442853  0.6765268266802642  1.0000
  C   C21       1.0  0.8510040207423468  0.9310067712068341  0.2696668373301545  1.0000
  N   N3        1.0  0.8402893732550835  0.8282013679292146  0.19770808860570233  1.0000
  C   C22       1.0  0.8224826892565873  0.8839214252443863  0.0781228913537586  1.0000
  C   C23       1.0  0.8229885449504963  0.017116643415176158  0.08152254565415684  1.0000
  O   O1        1.0  0.8407577611845537  0.04306134682233642  0.20085690438844206  1.0000
  H   H9        1.0  0.9093318070471655  0.34533390273746667  0.6614009228372058  1.0000
  H   H10       1.0  0.8742118055719911  0.1263049491769015  0.4255172939181411  1.0000
  H   H11       1.0  0.8742255919066932  0.7092087869770859  0.4256159683818639  1.0000
  H   H12       1.0  0.9269066378756232  0.8893939814027998  0.7793693431278936  1.0000
  H   H13       1.0  0.9093376646724803  0.4523837347444418  0.6614222150989706  1.0000
  H   H14       1.0  0.8099363125421671  0.830647193105802  0.9938633198829856  1.0000
  H   H15       1.0  0.8110267048738155  0.08898720598324794  0.0011908215457907545  1.0000
  C   C24       1.0  0.9016884946681121  0.4030476136553003  0.22920576724463815  1.0000
  C   C25       1.0  0.9801615433354656  0.4154082387224898  0.23114900386152137  1.0000
  C   C26       1.0  0.02003842793695565  0.4215598788438948  0.11500479681094822  1.0000
  C   C27       1.0  0.9803815475956754  0.41518408570023313  0.9958938383068019  1.0000
  C   C28       1.0  0.901859303499721  0.40282241585367795  0.9919999783392726  1.0000
  C   C29       1.0  0.862996272423457  0.3968281553435056  0.10912497743520344  1.0000
  C   C30       1.0  0.10305501780112913  0.4346378123638892  0.118105309240923  1.0000
  C   C31       1.0  0.14776579063157613  0.3627003153541979  0.03802393326871489  1.0000
  C   C32       1.0  0.22589923536148215  0.3751715889216185  0.04117993724951963  1.0000
  C   C33       1.0  0.2602244776631151  0.45939346180548357  0.12398147774985291  1.0000
  C   C34       1.0  0.21648570302497272  0.5313194442214542  0.20386472820436707  1.0000
  C   C35       1.0  0.13833257117563713  0.5191741620980461  0.20117759532033674  1.0000
  H   H16       1.0  0.8714986870419723  0.39835909790747026  0.5559287092856249  1.0000
  H   H17       1.0  0.010561458559090742  0.4184857846067591  0.3233574169716682  1.0000
  H   H18       1.0  0.01072326486047781  0.4216667487658605  0.9059212169110062  1.0000
  H   H19       1.0  0.802468017618201  0.38729773490788255  0.10691019078085873  1.0000
  H   H20       1.0  0.7536038520852051  0.3803152209431615  0.7772928798796057  1.0000
  H   H21       1.0  0.12240520901723029  0.29563214438926555  0.9742983722707081  1.0000
  H   H22       1.0  0.2598720352542634  0.319211407827529  0.9795789036556322  1.0000
  H   H23       1.0  0.3207125161958757  0.4689207279114127  0.12624313105817864  1.0000
  H   H24       1.0  0.24313656239153358  0.5968281173855421  0.2677323111498351  1.0000
  H   H25       1.0  0.10544313792622284  0.5770669384521907  0.2627263791633474  1.0000
  Zn  Zn1       1.0  0.8194538993712527  0.4046412596407929  0.6066618960922123  1.0000
  Zn  Zn2       1.0  0.9840866828072692  0.40122829949773964  0.6145428766576639  1.0000
  C   C36       1.0  0.9018253280061371  0.3976916641181334  0.8478154710366139  1.0000
  C   C37       1.0  0.9017170519837607  0.4081794962312997  0.37338951523719577  1.0000
  C   C38       1.0  0.901768566581832  0.6401140387633819  0.6054253813010821  1.0000
  C   C39       1.0  0.9017737572478507  0.16575556252440715  0.6157796715386692  1.0000
  O   O2        1.0  0.9642039194098306  0.40860093692661725  0.42476968929229764  1.0000
  O   O3        1.0  0.9642909337822125  0.39467888609339763  0.8024164050107312  1.0000
  O   O4        1.0  0.9642442562929433  0.5904380365300386  0.6066846522714247  1.0000
  O   O5        1.0  0.9642505406992679  0.2128417969729841  0.6205013419604297  1.0000
  O   O6        1.0  0.8392899852981633  0.5930277633316401  0.6007034280932231  1.0000
  O   O7        1.0  0.8393366627665568  0.3972701731227346  0.7964351115703645  1.0000
  O   O8        1.0  0.839249648094581  0.4111921791627522  0.41878683433861386  1.0000
  O   O9        1.0  0.8392962694027596  0.21543302989220336  0.6145185843816967  1.0000
