data_image0
_chemical_formula_structural       NC12NC2H8C6NCOCH9C12H10Zn2C4O8
_chemical_formula_sum              "N3 C38 H27 O9 Zn2"
_cell_length_a       17.80743265337812
_cell_length_b       10.300268703208216
_cell_length_c       10.299141136925906
_cell_angle_alpha    85.54380073465761
_cell_angle_beta     91.556080336852
_cell_angle_gamma    89.41550465668445

_space_group_name_H-M_alt    "P 1"
_space_group_IT_number       1

loop_
  _space_group_symop_operation_xyz
  'x, y, z'

loop_
  _atom_site_type_symbol
  _atom_site_label
  _atom_site_symmetry_multiplicity
  _atom_site_fract_x
  _atom_site_fract_y
  _atom_site_fract_z
  _atom_site_occupancy
  N   N1        1.0  0.7068168674328391  0.40698608957366456  0.6012620926390664  1.0000
  C   C1        1.0  0.6559752483591991  0.43656175827735866  0.5325596045198879  1.0000
  C   C2        1.0  0.5927232618770129  0.4733517423365694  0.44710235778627716  1.0000
  C   C3        1.0  0.604409842941871  0.5274035409601112  0.3204756895053995  1.0000
  C   C4        1.0  0.5430660656178594  0.5626893707722354  0.23741455174328352  1.0000
  C   C5        1.0  0.46988119878618234  0.5441870295267328  0.280320143918356  1.0000
  C   C6        1.0  0.4572179764968503  0.4900163088181393  0.4074149810351029  1.0000
  C   C7        1.0  0.5194190654445779  0.4547337371557163  0.4904596061723163  1.0000
  C   C8        1.0  0.37946578791453617  0.47039913256026034  0.4531810237864591  1.0000
  C   C9        1.0  0.3607040479023925  0.4975502473014777  0.5802331107330134  1.0000
  C   C10       1.0  0.2874892361487567  0.47908946644083894  0.6231792686206676  1.0000
  C   C11       1.0  0.23209344251616953  0.43322308892355443  0.5399113546450263  1.0000
  C   C12       1.0  0.1567424654909611  0.41420913770652357  0.5842585165818235  1.0000
  N   N2        1.0  0.09616561604555532  0.398923199724762  0.6199105839902155  1.0000
  C   C13       1.0  0.2501638508060348  0.40590292581161025  0.41340226740018493  1.0000
  C   C14       1.0  0.3233257444861434  0.4243785594512288  0.3702002076181383  1.0000
  H   H1        1.0  0.660864431566733  0.542235708460743  0.286036821195921  1.0000
  H   H2        1.0  0.5522326584170508  0.6048102854672197  0.13963016344479784  1.0000
  H   H3        1.0  0.4232204446911459  0.5738384766932774  0.21472578497245332  1.0000
  H   H4        1.0  0.5109511116249614  0.41122761753235304  0.5881195284245317  1.0000
  H   H5        1.0  0.4023881941634402  0.5347101953167281  0.645810425110116  1.0000
  H   H6        1.0  0.2740643749911427  0.5009078586356526  0.7211941194147642  1.0000
  H   H7        1.0  0.2077626616186811  0.3700100855307822  0.3482379438050469  1.0000
  H   H8        1.0  0.33622259852672093  0.40102461759804897  0.27248869556953803  1.0000
  C   C15       1.0  0.9015711642855806  0.021605354305470614  0.6105978206738174  1.0000
  C   C16       1.0  0.9142065358534636  0.03076916566392951  0.47619736968714466  1.0000
  C   C17       1.0  0.9215984052164408  0.9180651280796632  0.40879941690578026  1.0000
  C   C18       1.0  0.9140365867809397  0.7956131567621321  0.476221630039668  1.0000
  C   C19       1.0  0.9014185017263912  0.7842938373031805  0.610586377200729  1.0000
  C   C20       1.0  0.8955352465987982  0.8978856195680416  0.6771575613496261  1.0000
  N   N3        1.0  0.9333649801449518  0.9258813243198896  0.2708146281095505  1.0000
  C   C21       1.0  0.9774539451733772  0.024096331180498476  0.20314065446857899  1.0000
  O   O1        1.0  0.019887994022898203  0.09619551120719083  0.2651469558424784  1.0000
  C   C22       1.0  0.9774524366460586  0.03502478707626744  0.05765208950748146  1.0000
  H   H9        1.0  0.8956746975867435  0.3455926822191677  0.6613396116302757  1.0000
  H   H10       1.0  0.9168111230309198  0.12557988398645614  0.42348684807157366  1.0000
  H   H11       1.0  0.9186883145228558  0.7091701017474056  0.42328148053665715  1.0000
  H   H12       1.0  0.8858104383644917  0.8900081054134809  0.7808232398324515  1.0000
  H   H13       1.0  0.8955263176823539  0.45264385948691493  0.6611403178638866  1.0000
  H   H14       1.0  0.9126598122742788  0.8509012927820526  0.2176391934003985  1.0000
  H   H15       1.0  0.91994483781278  0.01919137178740349  0.018076530766550913  1.0000
  H   H16       1.0  0.9960696182845741  0.13331023609058112  0.020673567533018078  1.0000
  H   H17       1.0  0.016221827386893484  0.9605068461900439  0.023757486561518215  1.0000
  C   C23       1.0  0.9014094238743536  0.4030621818869895  0.22919501531586683  1.0000
  C   C24       1.0  0.9798800139726501  0.4154229352979706  0.23113815720997732  1.0000
  C   C25       1.0  0.01975567499264863  0.4215746392935573  0.11499390301774248  1.0000
  C   C26       1.0  0.9801000628176347  0.4151987799482706  0.9958829933730029  1.0000
  C   C27       1.0  0.9015802774985476  0.4028369817470765  0.9919892281362519  1.0000
  C   C28       1.0  0.8627184387004515  0.3968426589968379  0.1091142731678032  1.0000
  C   C29       1.0  0.10276966361274997  0.4346527086053549  0.11809431522801783  1.0000
  C   C30       1.0  0.14749474504840476  0.36271446464872237  0.0380134905320717  1.0000
  C   C31       1.0  0.22562570920090197  0.3751858677088278  0.04116939894217442  1.0000
  C   C32       1.0  0.2599341994944855  0.45940861509170894  0.12397029402779114  1.0000
  C   C33       1.0  0.21618111854142597  0.5313353443350619  0.20385299329428275  1.0000
  C   C34       1.0  0.13803040242872666  0.5191899361038275  0.20116595348279498  1.0000
  H   H18       1.0  0.8712205488094462  0.39837361745700295  0.5559179932862031  1.0000
  H   H19       1.0  0.010279317062257265  0.41850051313725034  0.32334654673606766  1.0000
  H   H20       1.0  0.010440490659391122  0.421681510325183  0.9059103222988276  1.0000
  H   H21       1.0  0.8021920795272256  0.38731213960422184  0.10689955954761676  1.0000
  H   H22       1.0  0.7533293028392664  0.38032955313812544  0.7772823021552342  1.0000
  H   H23       1.0  0.12214750351427073  0.2956455972964087  0.9742884434953796  1.0000
  H   H24       1.0  0.259609639758106  0.3192251055646904  0.979568794186108  1.0000
  H   H25       1.0  0.3204203430226231  0.46893598012187887  0.1262318743261308  1.0000
  H   H26       1.0  0.24281894801702664  0.596844697693834  0.267720074229284  1.0000
  H   H27       1.0  0.10512945411532426  0.5770833135746927  0.2627142936779905  1.0000
  Zn  Zn1       1.0  0.8191745115960566  0.40465584441974967  0.6066511319509058  1.0000
  Zn  Zn2       1.0  0.9838079738810919  0.40124284883898653  0.6145321386707836  1.0000
  C   C35       1.0  0.901547322528391  0.3977061767375165  0.8478047601519154  1.0000
  C   C36       1.0  0.9014369604416475  0.4081941177487465  0.373378723981437  1.0000
  C   C37       1.0  0.901442342494925  0.6401310685213755  0.6054128126689489  1.0000
  C   C38       1.0  0.9015418846250007  0.16576766688705513  0.6157707380422928  1.0000
  O   O2        1.0  0.9639237440417739  0.4086155628199992  0.4247588948069265  1.0000
  O   O3        1.0  0.9640135275559435  0.3946933674302726  0.8024057172137555  1.0000
  O   O4        1.0  0.9639279129265759  0.5904545504883518  0.6066724643197705  1.0000
  O   O5        1.0  0.9640093024692247  0.21285439024503572  0.6204920476296567  1.0000
  O   O6        1.0  0.8389731268266012  0.5930443041798037  0.6006912202958004  1.0000
  O   O7        1.0  0.8390587411247586  0.3972846813656603  0.7964244039156638  1.0000
  O   O8        1.0  0.8389689573199048  0.41120683196171925  0.4187760199958608  1.0000
  O   O9        1.0  0.83905451576795  0.21544565006974392  0.6145092701936135  1.0000
