data_image0
_chemical_formula_structural       NC12NC2H8C6NCSNH8C6SCNH5Zn2C4O8
_chemical_formula_sum              "N5 C32 H21 S2 Zn2 O8"
_cell_length_a       17.80743265337812
_cell_length_b       9.27507834575679
_cell_length_c       9.275272990362726
_cell_angle_alpha    84.8688773270798
_cell_angle_beta     91.20895717805207
_cell_angle_gamma    90.00966593732542

_space_group_name_H-M_alt    "P 1"
_space_group_IT_number       1

loop_
  _space_group_symop_operation_xyz
  'x, y, z'

loop_
  _atom_site_type_symbol
  _atom_site_label
  _atom_site_symmetry_multiplicity
  _atom_site_fract_x
  _atom_site_fract_y
  _atom_site_fract_z
  _atom_site_occupancy
  N   N1        1.0  0.7200982456977643  0.5763038112222709  0.4414970464835686  1.0000
  C   C1        1.0  0.6696732241303461  0.6098177065745538  0.36507207766457084  1.0000
  C   C2        1.0  0.6069394418974778  0.6515065232922059  0.2700090320985966  1.0000
  C   C3        1.0  0.6193911197565719  0.7127660302243608  0.12915038523983902  1.0000
  C   C4        1.0  0.5585481984778686  0.7527609933030144  0.03675427435539658  1.0000
  C   C5        1.0  0.48510297055952417  0.7317956396616954  0.08448275643861636  1.0000
  C   C6        1.0  0.47167230530272264  0.6703995240977403  0.22586193572234747  1.0000
  C   C7        1.0  0.5333726153724971  0.6304083392868902  0.31823969003874164  1.0000
  C   C8        1.0  0.3936431055564281  0.6481682750547357  0.27677202849669347  1.0000
  C   C9        1.0  0.37459903813417395  0.6771009458010813  0.41784703044560856  1.0000
  C   C10       1.0  0.3011239713008085  0.6561813641556804  0.46562045171847544  1.0000
  C   C11       1.0  0.24574580222227643  0.6060383624636219  0.373250747498062  1.0000
  C   C12       1.0  0.1701263725803053  0.5844908324994949  0.42258249457323127  1.0000
  N   N2        1.0  0.10933370552441951  0.5671680682604137  0.46224182561896043  1.0000
  C   C13       1.0  0.2640956311688816  0.5769126834444713  0.23277957671676197  1.0000
  C   C14       1.0  0.33751876327807323  0.5978512311374156  0.18472178981280196  1.0000
  H   H1        1.0  0.6760545778998032  0.7295730662026974  0.09084040633595669  1.0000
  H   H2        1.0  0.5683078892360877  0.8004900519504239  0.9279783824279133  1.0000
  H   H3        1.0  0.4388483981443513  0.7653637266771929  0.011510822611150884  1.0000
  H   H4        1.0  0.5243037380697863  0.5811418623261853  0.42688166666328287  1.0000
  H   H5        1.0  0.4162754947899839  0.7177438997100718  0.4905891470262842  1.0000
  H   H6        1.0  0.28748651102199557  0.6794707819083603  0.5744505834156448  1.0000
  H   H7        1.0  0.2217082439917526  0.5376731882199213  0.16049231241939843  1.0000
  H   H8        1.0  0.3506179984872932  0.5728532730112648  0.07623352811272643  1.0000
  C   C15       1.0  0.9125216659776964  0.14815142366017287  0.4530858641779216  1.0000
  C   C16       1.0  0.8882265138127602  0.23260161871164975  0.3274440290920375  1.0000
  C   C17       1.0  0.8714203486603639  0.16904101302940244  0.19996871594294596  1.0000
  C   C18       1.0  0.8793497752625122  0.01933403496368613  0.19454843304303338  1.0000
  C   C19       1.0  0.9009297802516477  0.9334554708870133  0.32044555706186206  1.0000
  C   C20       1.0  0.9169173706818388  0.9953091238912756  0.4506658231971359  1.0000
  N   N3        1.0  0.8613148848634792  0.9514898776501408  0.06481507354418925  1.0000
  C   C21       1.0  0.8714377667756946  0.019082281639851928  0.9211865158809944  1.0000
  S   S1        1.0  0.8227596988244719  0.9615036532380621  0.7861188112761059  1.0000
  N   N4        1.0  0.9292688357694577  0.12400280247730966  0.891922447481623  1.0000
  H   H9        1.0  0.9165973649096809  0.40803183409230037  0.6917858044951732  1.0000
  H   H10       1.0  0.8835428242909305  0.3491037647099837  0.3268767030542088  1.0000
  H   H11       1.0  0.8520085543401271  0.23702726466679103  0.1056316196771927  1.0000
  H   H12       1.0  0.904055193677095  0.8171317414731063  0.3169348249098458  1.0000
  H   H13       1.0  0.9821111495708696  0.6959837830040909  0.6566568136724777  1.0000
  H   H14       1.0  0.8400957642669492  0.8460555405208334  0.07559392292034106  1.0000
  H   H15       1.0  0.967705353344674  0.1484399130683911  0.9726371290489118  1.0000
  H   H16       1.0  0.9361611265504683  0.17306008883321367  0.7872584433466945  1.0000
  C   C22       1.0  0.9159683535233791  0.575534089538503  0.028125830910724847  1.0000
  C   C23       1.0  0.8591262147932044  0.651352512573822  0.0926166684931069  1.0000
  C   C24       1.0  0.7996232535472823  0.7147139193946375  0.009604973433576802  1.0000
  C   C25       1.0  0.7958813154354253  0.7037500197424624  0.8606099597923298  1.0000
  C   C26       1.0  0.8523221019856125  0.6305024939382484  0.7941606296432839  1.0000
  C   C27       1.0  0.9134707046580052  0.5679264214883926  0.8756258686234477  1.0000
  S   S2        1.0  0.7188291916624012  0.7837122304378688  0.754593224216241  1.0000
  C   C28       1.0  0.7661606630568557  0.9500640986975879  0.7203471463300395  1.0000
  N   N5        1.0  0.7972102994162682  0.05911162453605012  0.6979124509328396  1.0000
  H   H17       1.0  0.0346993887595457  0.5070881358835004  0.32019644759028676  1.0000
  H   H18       1.0  0.8597129781674118  0.6587260975288809  0.2085373621204103  1.0000
  H   H19       1.0  0.7560654051129113  0.7714360546055858  0.061595210817650736  1.0000
  H   H20       1.0  0.849345939707872  0.6257049205612715  0.6778771866057531  1.0000
  H   H21       1.0  0.09157412251373809  0.4747159744104432  0.7881772295572578  1.0000
  Zn  Zn1       1.0  0.8324231502945545  0.5736635073815142  0.44749187157832204  1.0000
  Zn  Zn2       1.0  0.9970087026940269  0.5697965003470113  0.4562588043808147  1.0000
  C   C29       1.0  0.913911310474613  0.5636181089420191  0.7154465570255768  1.0000
  C   C30       1.0  0.9155223488092893  0.5798436752934184  0.18830435110078714  1.0000
  C   C31       1.0  0.9160995771342134  0.8352299772890937  0.445372800493836  1.0000
  C   C32       1.0  0.913334016769159  0.3082300745556814  0.45837818652460993  1.0000
  O   O1        1.0  0.977831992291212  0.579816209716564  0.2453887490111646  1.0000
  O   O2        1.0  0.9765182885913486  0.5607095212124644  0.6650156459766305  1.0000
  O   O3        1.0  0.9782844951893883  0.780039546217467  0.44692912762588977  1.0000
  O   O4        1.0  0.9760657299036761  0.3604861973209361  0.4634751561450594  1.0000
  O   O5        1.0  0.8533660669199643  0.7829738117288467  0.44027551681475874  1.0000
  O   O6        1.0  0.8515998695375132  0.5636455204357644  0.6583619532740994  1.0000
  O   O7        1.0  0.8529135781394744  0.5827521742467616  0.23873332153742965  1.0000
  O   O8        1.0  0.8511473153764938  0.36342215056301685  0.4568198368888521  1.0000
