data_image0
_chemical_formula_structural       NC12NC2H8C9H10C6NCOCH9Zn2C4O8
_chemical_formula_sum              "N3 C35 H27 O9 Zn2"
_cell_length_a       17.80743265337812
_cell_length_b       10.297183801781406
_cell_length_c       10.300272075376752
_cell_angle_alpha    85.51422657715052
_cell_angle_beta     91.53227337963534
_cell_angle_gamma    89.4353606467078

_space_group_name_H-M_alt    "P 1"
_space_group_IT_number       1

loop_
  _space_group_symop_operation_xyz
  'x, y, z'

loop_
  _atom_site_type_symbol
  _atom_site_label
  _atom_site_symmetry_multiplicity
  _atom_site_fract_x
  _atom_site_fract_y
  _atom_site_fract_z
  _atom_site_occupancy
  N   N1        1.0  0.7074245447143966  0.40752288917258017  0.6007882615180584  1.0000
  C   C1        1.0  0.6566051335323501  0.4371118160134877  0.5320804134410915  1.0000
  C   C2        1.0  0.5933807711761333  0.4739182920487477  0.4466164988809056  1.0000
  C   C3        1.0  0.6051081951471794  0.527994374565846  0.3199801598351919  1.0000
  C   C4        1.0  0.5437911760711072  0.5632960772309206  0.2369127553618693  1.0000
  C   C5        1.0  0.4705924339488065  0.5447854455119974  0.2798217093793358  1.0000
  C   C6        1.0  0.4578882333854924  0.49059037795827964  0.40692621634798254  1.0000
  C   C7        1.0  0.5200625686788473  0.4552919353527858  0.48997710865288013  1.0000
  C   C8        1.0  0.38012126740489277  0.47096439786858935  0.4526957912886167  1.0000
  C   C9        1.0  0.3613342751115852  0.49811813282296913  0.5797207030635179  1.0000
  C   C10       1.0  0.2881055863610652  0.4796490732317418  0.6226701992125865  1.0000
  C   C11       1.0  0.23272091766457254  0.4337716702901455  0.5394328158923967  1.0000
  C   C12       1.0  0.1573556204240934  0.4147491865395785  0.5837834027599706  1.0000
  N   N2        1.0  0.09676725850509511  0.3994563889781413  0.6194382235903426  1.0000
  C   C13       1.0  0.25081641521729714  0.4064488036332381  0.4129509168611467  1.0000
  C   C14       1.0  0.32399225019485023  0.42493273378393126  0.3697455420416853  1.0000
  H   H1        1.0  0.6615739173199049  0.5428331902371053  0.28553860171455314  1.0000
  H   H2        1.0  0.5529893823938661  0.6054358708160084  0.1391207265308827  1.0000
  H   H3        1.0  0.42395315627176466  0.5744500198016953  0.21422159231832838  1.0000
  H   H4        1.0  0.5115627635184837  0.4117664837820936  0.5876453136960806  1.0000
  H   H5        1.0  0.4030098605831567  0.5352871080715884  0.6452735027575649  1.0000
  H   H6        1.0  0.2746614128522482  0.5014697761244555  0.7206636902221428  1.0000
  H   H7        1.0  0.20842393255245772  0.37054733552287167  0.3478104854319284  1.0000
  H   H8        1.0  0.3369080470186607  0.40157595683259517  0.27205605008674794  1.0000
  C   C15       1.0  0.9021021243092596  0.02201389934194542  0.6102975274885833  1.0000
  C   C16       1.0  0.89991423541317  0.03196648406298297  0.4735377191343897  1.0000
  C   C17       1.0  0.8987931421787734  0.9204490004678524  0.4034716617106806  1.0000
  C   C18       1.0  0.8999054428344977  0.7967957566187294  0.4730076433917596  1.0000
  C   C19       1.0  0.9020968826539689  0.784955257948388  0.6099404704522944  1.0000
  C   C20       1.0  0.9031802049437339  0.8980410777907241  0.6776915121370901  1.0000
  C   C21       1.0  0.8964265779871778  0.9406456227260193  0.2555562622022127  1.0000
  C   C22       1.0  0.8524374721325196  0.842865089887429  0.18115784201470353  1.0000
  C   C23       1.0  0.9380267853665516  0.8414014745528503  0.18113224463835786  1.0000
  H   H9        1.0  0.9029523216324342  0.3457171554124503  0.6629958099459858  1.0000
  H   H10       1.0  0.8990697473509879  0.12723109293863155  0.4207408954126661  1.0000
  H   H11       1.0  0.8990825834299723  0.7092308424053639  0.42167688994435504  1.0000
  H   H12       1.0  0.9048678306227405  0.8896350146171997  0.7832045581032552  1.0000
  H   H13       1.0  0.9062259157244275  0.555375646801538  0.8685675455696791  1.0000
  H   H14       1.0  0.8956666123774194  0.0413933657927672  0.20801368556853084  1.0000
  H   H15       1.0  0.8273672333226325  0.7597265469513519  0.2390559467045812  1.0000
  H   H16       1.0  0.8259346221453749  0.8843189352106937  0.08800807777014308  1.0000
  H   H17       1.0  0.964947458172237  0.7573746633769024  0.23901547822823832  1.0000
  H   H18       1.0  0.9615471223641341  0.8819975342103232  0.08796632165128493  1.0000
  C   C24       1.0  0.9021056589429076  0.40361637165648934  0.2287665142368629  1.0000
  C   C25       1.0  0.8252181171359538  0.43593953841503064  0.22163008639356208  1.0000
  C   C26       1.0  0.7867010646161882  0.45397750038043294  0.10062947808711908  1.0000
  C   C27       1.0  0.8252257127122831  0.4356432084112143  0.9864966297974731  1.0000
  C   C28       1.0  0.9020933577744156  0.40335273713283026  0.9914715424733305  1.0000
  C   C29       1.0  0.9401913575856385  0.3879926259967479  0.11309353477238471  1.0000
  N   N3        1.0  0.7077176300437235  0.48507367060477957  0.09185065546816151  1.0000
  C   C30       1.0  0.6704232537519592  0.566713015352347  0.17747833229268561  1.0000
  O   O1        1.0  0.7077128702836064  0.6354200224465578  0.251494837049127  1.0000
  C   C31       1.0  0.5866774816125224  0.5780026885029876  0.1723499240575439  1.0000
  H   H19       1.0  0.931091523848319  0.3894621019919029  0.5590385170526262  1.0000
  H   H20       1.0  0.7949751356116155  0.4445432485962244  0.31032082486240053  1.0000
  H   H21       1.0  0.7949275961457982  0.44781156137811307  0.8936706695523862  1.0000
  H   H22       1.0  0.9994969492217123  0.3630978251232242  0.11778624777671842  1.0000
  H   H23       1.0  0.9309711804730901  0.38922033894547736  0.6660852620058626  1.0000
  H   H24       1.0  0.6763293813604657  0.4533278571807633  0.013405488326253545  1.0000
  H   H25       1.0  0.5617319419194989  0.4814389306417093  0.15882463522921486  1.0000
  H   H26       1.0  0.5660929601759299  0.6131282247496344  0.2643927675168942  1.0000
  H   H27       1.0  0.5686268183823308  0.6478038085417039  0.08959035836102491  1.0000
  Zn  Zn1       1.0  0.8197804448904709  0.4051916006244216  0.606177725943879  1.0000
  Zn  Zn2       1.0  0.9844113557369254  0.4017770774409435  0.6140593567183292  1.0000
  C   C32       1.0  0.9020940229431165  0.3982275138887943  0.8473062752883445  1.0000
  C   C33       1.0  0.9020995754353586  0.40874276592431036  0.3729310201349565  1.0000
  C   C34       1.0  0.9020940794670811  0.6407449664362574  0.6048328488002981  1.0000
  C   C35       1.0  0.9020994627440018  0.16622375377870746  0.6154045138995767  1.0000
  O   O2        1.0  0.9645741064787119  0.409161769590177  0.4243049857289407  1.0000
  O   O3        1.0  0.9645705439450379  0.39521598626579824  0.80191391171231  1.0000
  O   O4        1.0  0.9645697473529518  0.5910519132509175  0.6061148633301896  1.0000
  O   O5        1.0  0.9645748468949296  0.21332585309667706  0.62010393404677  1.0000
  O   O6        1.0  0.8396168975520167  0.5936428261353137  0.6001331459189929  1.0000
  O   O7        1.0  0.839617694131045  0.39780845991495983  0.795932124328095  1.0000
  O   O8        1.0  0.8396212567402253  0.411754198509263  0.4183216370348306  1.0000
  O   O9        1.0  0.8396219971518615  0.21591827269076935  0.6141206827205064  1.0000
