data_image0
_chemical_formula_structural       NC12NC2H8C12H10C9NC2H9Zn2C4O8
_chemical_formula_sum              "N3 C41 H27 Zn2 O8"
_cell_length_a       17.80743265337812
_cell_length_b       10.299137764757564
_cell_length_c       9.273598843048156
_cell_angle_alpha    85.09583829272768
_cell_angle_beta     91.13569736745053
_cell_angle_gamma    89.45463381285008

_space_group_name_H-M_alt    "P 1"
_space_group_IT_number       1

loop_
  _space_group_symop_operation_xyz
  'x, y, z'

loop_
  _atom_site_type_symbol
  _atom_site_label
  _atom_site_symmetry_multiplicity
  _atom_site_fract_x
  _atom_site_fract_y
  _atom_site_fract_z
  _atom_site_occupancy
  N   N1        1.0  0.7132369168532572  0.4175375633587095  0.445383029208434  1.0000
  C   C1        1.0  0.6626951745535885  0.4476262946413192  0.3690387570362246  1.0000
  C   C2        1.0  0.5998161976448322  0.4850544641699406  0.27407609233068553  1.0000
  C   C3        1.0  0.6120553067117626  0.5400518362938116  0.13336489790525974  1.0000
  C   C4        1.0  0.551073895436692  0.5759578955346236  0.04106503619554491  1.0000
  C   C5        1.0  0.4777017391859098  0.5571351358719481  0.08874303312641563  1.0000
  C   C6        1.0  0.4644839777131693  0.5020153562961491  0.22997444032978875  1.0000
  C   C7        1.0  0.5263227711814871  0.46611267801309175  0.3222559541361789  1.0000
  C   C8        1.0  0.3865320598267569  0.48205641542248046  0.2808310129592655  1.0000
  C   C9        1.0  0.36724776286601174  0.5082694836472894  0.42198488058172035  1.0000
  C   C10       1.0  0.29384550771212853  0.48948798919204384  0.46970793354923557  1.0000
  C   C11       1.0  0.2387812113701183  0.44423270036995177  0.3772083072132739  1.0000
  C   C12       1.0  0.16323669529026322  0.4248875795841174  0.4264881795880262  1.0000
  N   N2        1.0  0.1025042537476833  0.40933540404744906  0.4661058068617743  1.0000
  C   C13       1.0  0.2573718317958855  0.4178465372230571  0.23665781329570645  1.0000
  C   C14       1.0  0.3307222485789933  0.436644782969035  0.1886504296511613  1.0000
  H   H1        1.0  0.6686602187769624  0.5551411903217014  0.09509538867342493  1.0000
  H   H2        1.0  0.5606673135383137  0.6188090566150584  0.9324040718873086  1.0000
  H   H3        1.0  0.4313278482124116  0.5872766203960829  0.015852085350687162  1.0000
  H   H4        1.0  0.5174279726648814  0.42187705227254124  0.4307791395304952  1.0000
  H   H5        1.0  0.40867124571460167  0.5449483077189914  0.49483220982899456  1.0000
  H   H6        1.0  0.2800178590976343  0.5105828363339857  0.5786013382448925  1.0000
  H   H7        1.0  0.21523006843462034  0.3824319267502483  0.16426887807392476  1.0000
  H   H8        1.0  0.3440200165999991  0.41401193608625264  0.08009462310591564  1.0000
  C   C15       1.0  0.9078013239722155  0.0320369528740061  0.4558980500149248  1.0000
  C   C16       1.0  0.908311316469809  0.042944259240864646  0.3039504146123122  1.0000
  C   C17       1.0  0.9086447050786216  0.9313424804985403  0.22675524903782662  1.0000
  C   C18       1.0  0.9084611628277335  0.8076886931969743  0.3035614988040374  1.0000
  C   C19       1.0  0.9079469830305976  0.7948258052202046  0.45560362367048746  1.0000
  C   C20       1.0  0.9076214883550657  0.9075239157419661  0.5308359312454836  1.0000
  C   C21       1.0  0.9091833372132208  0.9439262653038704  0.0660096156513359  1.0000
  C   C22       1.0  0.9547616756438483  0.861195344321727  0.990791834177696  1.0000
  C   C23       1.0  0.955175334147796  0.8732927246284317  0.8394782105882408  1.0000
  C   C24       1.0  0.9102051988486644  0.9677560396533684  0.7616818994669114  1.0000
  C   C25       1.0  0.8647275836067431  0.05038356551392331  0.8350411610197543  1.0000
  C   C26       1.0  0.8641250591562664  0.038785054743021075  0.9863457055675608  1.0000
  H   H9        1.0  0.9075668142358867  0.3553180263089448  0.5143451178527452  1.0000
  H   H10       1.0  0.9094898939577715  0.1384572907023225  0.24533294648106185  1.0000
  H   H11       1.0  0.9076815838775607  0.7213493441869341  0.24456586521819212  1.0000
  H   H12       1.0  0.9072260631557292  0.8983953738772221  0.6480365196702087  1.0000
  H   H13       1.0  0.9064988854644587  0.5632662763534131  0.7425497333842968  1.0000
  H   H14       1.0  0.9907636518879036  0.7883782516013224  0.04896645863502158  1.0000
  H   H15       1.0  0.9905524815011122  0.8095509032507034  0.7825119266019231  1.0000
  H   H16       1.0  0.9105985554082701  0.9769272477182166  0.6445586910212002  1.0000
  H   H17       1.0  0.8297446860327029  0.12331706561895639  0.7746217864626228  1.0000
  H   H18       1.0  0.8277446159727143  0.10277159564300176  0.04096094681877438  1.0000
  C   C27       1.0  0.909389321039558  0.41637062955669135  0.031991514994536896  1.0000
  C   C28       1.0  0.8592013076109308  0.4994420880034707  0.0956889932570073  1.0000
  C   C29       1.0  0.8053067779001434  0.5723787431325835  0.012025458013946944  1.0000
  C   C30       1.0  0.8001295468093086  0.56431834435712  0.862032680450239  1.0000
  C   C31       1.0  0.8508852035902581  0.4831836587172076  0.7969552515508864  1.0000
  C   C32       1.0  0.9063589640843857  0.4104921276862945  0.8795101240554253  1.0000
  C   C33       1.0  0.7423264990396556  0.6414810569096783  0.7733268383126388  1.0000
  C   C34       1.0  0.7600103249970505  0.7038999668023298  0.6376829114901086  1.0000
  C   C35       1.0  0.7047542361119503  0.7760096457252252  0.556197310372128  1.0000
  N   N3        1.0  0.6342095524369541  0.7857485349981266  0.6077616797407575  1.0000
  C   C36       1.0  0.6153156481900428  0.7266117963655061  0.7384307387582512  1.0000
  C   C37       1.0  0.6688417313457866  0.6536316349273705  0.8235305753632218  1.0000
  H   H19       1.0  0.021450661256632086  0.3223671351659785  0.3263102080578961  1.0000
  H   H20       1.0  0.8605342546618884  0.5060188103509631  0.2116794646639817  1.0000
  H   H21       1.0  0.7677257711843323  0.635677542131279  0.0649013536057581  1.0000
  H   H22       1.0  0.8476688792989283  0.4773902776126704  0.6808748890237428  1.0000
  H   H23       1.0  0.07512589115198032  0.27795244256294094  0.7954537403067494  1.0000
  H   H24       1.0  0.8161981109593804  0.6985327220909225  0.5959054089188678  1.0000
  H   H25       1.0  0.7180659579658256  0.8245965334304983  0.4519197134461175  1.0000
  H   H26       1.0  0.5585996985296162  0.7359785132177623  0.776254177606809  1.0000
  H   H27       1.0  0.6526761827891989  0.6058306821719635  0.9266231173835084  1.0000
  Zn  Zn1       1.0  0.825571034574902  0.4151670720978873  0.4513714956703945  1.0000
  Zn  Zn2       1.0  0.9901700894231911  0.41169521936003095  0.46012911499252107  1.0000
  C   C38       1.0  0.9069291246644109  0.40642923548509624  0.7193128813913892  1.0000
  C   C39       1.0  0.908813796556767  0.42043465582855033  0.19218796590664744  1.0000
  C   C40       1.0  0.9079361502637863  0.650682443623239  0.44990864803156594  1.0000
  C   C41       1.0  0.9078067142181699  0.17617988791409744  0.46159227381517587  1.0000
  O   O1        1.0  0.9710851277005609  0.42047536395582474  0.2492748313246349  1.0000
  O   O2        1.0  0.9695846688857607  0.40375249454339657  0.6688724313793493  1.0000
  O   O3        1.0  0.9703970073767063  0.6009900564720465  0.4513265615377271  1.0000
  O   O4        1.0  0.9702727334317476  0.2232378132533248  0.4668205899761084  1.0000
  O   O5        1.0  0.8454683343967936  0.6036244793908323  0.4446800176906702  1.0000
  O   O6        1.0  0.8446559964755177  0.40638847842473225  0.6622258099874505  1.0000
  O   O7        1.0  0.8461564615350169  0.4231113146103973  0.24262647499740075  1.0000
  O   O8        1.0  0.8453440668745194  0.22587375386798758  0.46017234184288647  1.0000
