data_image0
_chemical_formula_structural       NC12NC2H8C7NC2OH7C9H10Zn2C4O8
_chemical_formula_sum              "N3 C36 H25 O9 Zn2"
_cell_length_a       17.80743265337812
_cell_length_b       10.300333997791364
_cell_length_c       10.297187173949778
_cell_angle_alpha    85.56731809842256
_cell_angle_beta     91.50840816747596
_cell_angle_gamma    89.43519355652523

_space_group_name_H-M_alt    "P 1"
_space_group_IT_number       1

loop_
  _space_group_symop_operation_xyz
  'x, y, z'

loop_
  _atom_site_type_symbol
  _atom_site_label
  _atom_site_symmetry_multiplicity
  _atom_site_fract_x
  _atom_site_fract_y
  _atom_site_fract_z
  _atom_site_occupancy
  N   N1        1.0  0.7077741259852393  0.40637886140544865  0.6010847191637161  1.0000
  C   C1        1.0  0.6569716622375023  0.43592511492728514  0.5323732159240331  1.0000
  C   C2        1.0  0.5937683803650603  0.47267851018678964  0.4469047555274406  1.0000
  C   C3        1.0  0.605527037832736  0.526676097982923  0.320261467809551  1.0000
  C   C4        1.0  0.5442305055039365  0.5619263698029047  0.23718942717863967  1.0000
  C   C5        1.0  0.47102117930942733  0.5434423990504962  0.2801006491681348  1.0000
  C   C6        1.0  0.4582856302285502  0.48932608875965644  0.407212167788086  1.0000
  C   C7        1.0  0.5204394828262122  0.454079068059412  0.49026769359780276  1.0000
  C   C8        1.0  0.38050737522162004  0.46972850649573616  0.45298421659468113  1.0000
  C   C9        1.0  0.3616895038332407  0.4969331694277932  0.5800536025620402  1.0000
  C   C10       1.0  0.28845022133694725  0.4784907758159249  0.623005396039507  1.0000
  C   C11       1.0  0.2330856318691698  0.43258959505218963  0.5397259294114785  1.0000
  C   C12       1.0  0.1577093955670835  0.4135946304096858  0.5840789111602336  1.0000
  N   N2        1.0  0.09711223939492261  0.3983239563279981  0.6197356572968511  1.0000
  C   C13       1.0  0.25121187493576114  0.4052161155647458  0.4131996148940238  1.0000
  C   C14       1.0  0.3243983662466803  0.4236732533797223  0.36999188521231474  1.0000
  H   H1        1.0  0.6620012553749616  0.5414935203074029  0.2858180804924664  1.0000
  H   H2        1.0  0.5534528332893844  0.604005417543042  0.13939220783895534  1.0000
  H   H3        1.0  0.4243980903371687  0.5730657471151885  0.21449769378516126  1.0000
  H   H4        1.0  0.5119155787857552  0.41061477703486227  0.5879404195316464  1.0000
  H   H5        1.0  0.4033492818469639  0.5341205158262918  0.6456400231405248  1.0000
  H   H6        1.0  0.2749822309489618  0.500350468923974  0.7210335989212207  1.0000
  H   H7        1.0  0.20883510600777583  0.3692960387260398  0.34802625036403034  1.0000
  H   H8        1.0  0.3373378971928463  0.40027815507215947  0.2722670501121549  1.0000
  C   C15       1.0  0.9024472502479166  0.021006081763836892  0.6104187493897757  1.0000
  C   C16       1.0  0.8826566265233347  0.03063142462894497  0.47707121300213995  1.0000
  C   C17       1.0  0.872671637298733  0.9183992700960082  0.4097924160581381  1.0000
  C   C18       1.0  0.8826545703009112  0.7953398474342209  0.47705970492478555  1.0000
  C   C19       1.0  0.9024463257548027  0.7836865705759956  0.6104131634581216  1.0000
  C   C20       1.0  0.9122324293988269  0.8970847673936855  0.6763487942982342  1.0000
  C   C21       1.0  0.8518420257218776  0.9302736556294652  0.2694340745202495  1.0000
  N   N3        1.0  0.8411622280491199  0.8274377645355359  0.1974656459717543  1.0000
  C   C22       1.0  0.8234134594815575  0.8831071554398571  0.07786436223014737  1.0000
  C   C23       1.0  0.8239176687137942  0.01630381399194425  0.08126447384888436  1.0000
  O   O1        1.0  0.8416290909986829  0.04229907753352835  0.2006148853302685  1.0000
  H   H9        1.0  0.9099800941611492  0.3447667588737924  0.6612208557326396  1.0000
  H   H10       1.0  0.8749743317584775  0.1256378650436094  0.4253054959669016  1.0000
  H   H11       1.0  0.874988070304873  0.7085417446506478  0.42540418370422195  1.0000
  H   H12       1.0  0.9274977925680805  0.8888768189464166  0.7792051450256559  1.0000
  H   H13       1.0  0.9099859414745646  0.4518165999019719  0.6612421508586197  1.0000
  H   H14       1.0  0.8109078899030051  0.8297972238153469  0.9935934562400806  1.0000
  H   H15       1.0  0.8119947335059963  0.08814034124267311  0.0009219435916034691  1.0000
  C   C24       1.0  0.9025460950521234  0.402297355344152  0.22896756164916554  1.0000
  C   C25       1.0  0.826412373794171  0.4395411747271014  0.22183827444063908  1.0000
  C   C26       1.0  0.7874068244170266  0.45862206334928857  0.1015693267036144  1.0000
  C   C27       1.0  0.8261172420783867  0.43968505192589147  0.9866014103348233  1.0000
  C   C28       1.0  0.9023474654267778  0.4023953721818063  0.9918643554822228  1.0000
  C   C29       1.0  0.9400640803789513  0.383943759835375  0.11341255692770091  1.0000
  C   C30       1.0  0.7050627175638462  0.4989036511402509  0.10329066084050642  1.0000
  C   C31       1.0  0.6524674904832933  0.44775951214679366  0.0004996678782902553  1.0000
  C   C32       1.0  0.6748069534821707  0.5905632064387873  0.9904692791254734  1.0000
  H   H16       1.0  0.9318848818975028  0.38795786036695445  0.5592522118765275  1.0000
  H   H17       1.0  0.7970206380744594  0.4539196565600143  0.31050833940373446  1.0000
  H   H18       1.0  0.7975410903908406  0.45366121685458793  0.8926252978067777  1.0000
  H   H19       1.0  0.998802698072642  0.3552087278873117  0.1181855974629813  1.0000
  H   H20       1.0  0.04632204295542208  0.3319491090696467  0.7945892919660209  1.0000
  H   H21       1.0  0.6785960897214897  0.5118519293092583  0.19809999280208013  1.0000
  H   H22       1.0  0.6779096166835079  0.3886199616892654  0.9271938938602937  1.0000
  H   H23       1.0  0.5940787611892995  0.4313962575738757  0.032821314122597034  1.0000
  H   H24       1.0  0.7138194503756027  0.6181689216496686  0.9110715384541201  1.0000
  H   H25       1.0  0.629473986605243  0.6576628286244979  0.016926155585808456  1.0000
  Zn  Zn1       1.0  0.8201286967423224  0.4040509236924599  0.6064744655446102  1.0000
  Zn  Zn2       1.0  0.9847576633983686  0.4006413025997939  0.6143565062522476  1.0000
  C   C33       1.0  0.9023833340557464  0.3972035012345858  0.8476604802439294  1.0000
  C   C34       1.0  0.9025048237929104  0.4074903263590359  0.3731707051055848  1.0000
  C   C35       1.0  0.902443962800323  0.6395231789227289  0.6052377844186587  1.0000
  C   C36       1.0  0.9024441388558807  0.16516908963745158  0.6155934675057517  1.0000
  O   O2        1.0  0.9649668076632372  0.4079335360447307  0.42455779077397904  1.0000
  O   O3        1.0  0.9648709267209463  0.3941714883230554  0.8022553071778515  1.0000
  O   O4        1.0  0.9649190426431347  0.589847710223149  0.6064972247849629  1.0000
  O   O5        1.0  0.9649186355896815  0.21225732458524504  0.6203157730822317  1.0000
  O   O6        1.0  0.8399676683712247  0.592434902871958  0.6005151960180399  1.0000
  O   O7        1.0  0.8399195524617042  0.396760241170254  0.7962732091394467  1.0000
  O   O8        1.0  0.8400154338606466  0.41052224343713806  0.41857413101220375  1.0000
  O   O9        1.0  0.8399672617586731  0.2148460227019937  0.6143322107085061  1.0000
