data_image0
_chemical_formula_structural       NC12NC2H8C7NC2OH7C7F3H5Zn2C4O8
_chemical_formula_sum              "N3 C34 H20 O9 F3 Zn2"
_cell_length_a       17.80743265337812
_cell_length_b       10.300333997791364
_cell_length_c       10.299327507215196
_cell_angle_alpha    85.55238519325289
_cell_angle_beta     91.5153373633688
_cell_angle_gamma    89.43519355652523

_space_group_name_H-M_alt    "P 1"
_space_group_IT_number       1

loop_
  _space_group_symop_operation_xyz
  'x, y, z'

loop_
  _atom_site_type_symbol
  _atom_site_label
  _atom_site_symmetry_multiplicity
  _atom_site_fract_x
  _atom_site_fract_y
  _atom_site_fract_z
  _atom_site_occupancy
  N   N1        1.0  0.7076737289181105  0.40674652648965015  0.6013423853741724  1.0000
  C   C1        1.0  0.6568663338971947  0.4363108388753585  0.5326435381065111  1.0000
  C   C2        1.0  0.5936569181416841  0.47308669708820883  0.44719082014593714  1.0000
  C   C3        1.0  0.605406486699665  0.5271175694696779  0.32057085885565373  1.0000
  C   C4        1.0  0.5441039924735623  0.5623896744122445  0.23751411926419608  1.0000
  C   C5        1.0  0.47089774592289857  0.5438944256659064  0.28041743743556324  1.0000
  C   C6        1.0  0.4581713193556164  0.4897447077285586  0.407505543384457  1.0000
  C   C7        1.0  0.5203311326653491  0.4544758582461794  0.49054577119658505  1.0000
  C   C8        1.0  0.3803963493077683  0.47013509558376665  0.4532691614372222  1.0000
  C   C9        1.0  0.3615875974092163  0.49730636194268496  0.5803151424939375  1.0000
  C   C10       1.0  0.2883513974684944  0.4788526796738253  0.623259024680413  1.0000
  C   C11       1.0  0.23298083121690732  0.432973386548698  0.5399948972976334  1.0000
  C   C12       1.0  0.1576077780305872  0.4139667649867278  0.5843397096705256  1.0000
  N   N2        1.0  0.0970131808645252  0.39868671954370716  0.619989888190948  1.0000
  C   C13       1.0  0.2510979937687125  0.405633160903512  0.4134918876624911  1.0000
  C   C14       1.0  0.3242813841560827  0.4241016546410299  0.3702921164126627  1.0000
  H   H1        1.0  0.6618782323158804  0.5419440442586432  0.2861338156661992  1.0000
  H   H2        1.0  0.5533193015680792  0.6044944253692788  0.139734913194683  1.0000
  H   H3        1.0  0.4242699487710915  0.5735350156011001  0.21482656546117052  1.0000
  H   H4        1.0  0.5118142383812059  0.41098589672428365  0.5882005067906981  1.0000
  H   H5        1.0  0.4032520824158218  0.5344764708163849  0.6458894827093864  1.0000
  H   H6        1.0  0.27489044234862003  0.5006866088575248  0.7212691717470965  1.0000
  H   H7        1.0  0.2087165474919675  0.36973021302957254  0.3483305274147377  1.0000
  H   H8        1.0  0.337213901606175  0.40073224052622547  0.2725852812502212  1.0000
  C   C15       1.0  0.9023475230635689  0.021371293663735358  0.6106746963651724  1.0000
  C   C16       1.0  0.8825473292801383  0.031031683135214205  0.4773517212607288  1.0000
  C   C17       1.0  0.8725575116045319  0.9188172109200576  0.4100853163985707  1.0000
  C   C18       1.0  0.8825452722318055  0.7957401089650606  0.4773402153030475  1.0000
  C   C19       1.0  0.9023465981695651  0.7840517839439969  0.6106691114623908  1.0000
  C   C20       1.0  0.9121374338685225  0.8974326514569055  0.6765925976184293  1.0000
  C   C21       1.0  0.8517178268187905  0.9307284856505709  0.2697528274640999  1.0000
  N   N3        1.0  0.8410328641305018  0.8279115094106752  0.19779765478070965  1.0000
  C   C22       1.0  0.8232755120423524  0.883612334109923  0.07821840039997219  1.0000
  C   C23       1.0  0.8237799652931078  0.016808099039399726  0.08161788575213835  1.0000
  O   O1        1.0  0.8414999530940341  0.04277199472069393  0.20094631408081565  1.0000
  H   H9        1.0  0.9098840129320289  0.3451186188852937  0.6614674454678917  1.0000
  H   H10       1.0  0.8748613194038376  0.12605172869593195  0.4255955389530921  1.0000
  H   H11       1.0  0.8748750650328345  0.7089555823657067  0.4256942085131177  1.0000
  H   H12       1.0  0.9274101788114187  0.889197670143981  0.7794300032342514  1.0000
  H   H13       1.0  0.9098898617737489  0.45216845431665537  0.6614887366715225  1.0000
  H   H14       1.0  0.810763894526572  0.830324550695652  0.9939630162683737  1.0000
  H   H15       1.0  0.8118512640789519  0.0886657420385637  0.001290153785785897  1.0000
  C   C24       1.0  0.9024189919565774  0.4027628208369447  0.22929376812016233  1.0000
  C   C25       1.0  0.9754249422807739  0.45332088861740427  0.22751954715845923  1.0000
  C   C26       1.0  0.011704985406793877  0.48104095584857154  0.10930198404688007  1.0000
  C   C27       1.0  0.9752360330869424  0.45318709232347065  0.9922730426712891  1.0000
  C   C28       1.0  0.9022751304354659  0.40266032778251004  0.9920500549173483  1.0000
  C   C29       1.0  0.8661781600615557  0.37822494689695074  0.11104892913852904  1.0000
  C   C30       1.0  0.09110821136687197  0.5308929884930254  0.10884230279597906  1.0000
  F   F1        1.0  0.10423087431353428  0.6064551660816846  0.21236142667151103  1.0000
  F   F2        1.0  0.14073199062098407  0.42632795719452954  0.11908874955308013  1.0000
  F   F3        1.0  0.10402448891899563  0.606441819467985  0.9947081382782561  1.0000
  H   H16       1.0  0.765157845018542  0.305172135772918  0.4400724499019235  1.0000
  H   H17       1.0  0.004235355974136379  0.47098921434523033  0.3182958232929769  1.0000
  H   H18       1.0  0.0039168713770583174  0.47076015009378724  0.9012665505764383  1.0000
  H   H19       1.0  0.8099083869541404  0.33926023773807423  0.11161144045978966  1.0000
  H   H20       1.0  0.8747155211415074  0.38109357771643393  0.6646987154776802  1.0000
  Zn  Zn1       1.0  0.8200286864854147  0.40441717223515705  0.606731139017662  1.0000
  Zn  Zn2       1.0  0.984658218818154  0.40100547957232524  0.6146117279321939  1.0000
  C   C31       1.0  0.9023006331876487  0.39750636089475555  0.8478727296640924  1.0000
  C   C32       1.0  0.902388069839212  0.4079178921579678  0.3734703507990855  1.0000
  C   C33       1.0  0.9023438637895359  0.6398897524918779  0.6054946856760115  1.0000
  C   C34       1.0  0.9023447830496496  0.16553294150990694  0.6158484613498003  1.0000
  O   O2        1.0  0.9648537416474433  0.4083475962100924  0.4248479714799911  1.0000
  O   O3        1.0  0.9647849672236299  0.39448628144124553  0.802475919777  1.0000
  O   O4        1.0  0.9648190340196077  0.5902139527842267  0.6067538940659902  1.0000
  O   O5        1.0  0.9648196186929158  0.21261993533402368  0.6205698971247997  1.0000
  O   O6        1.0  0.8398672304306746  0.5928027176391157  0.6007729671289668  1.0000
  O   O7        1.0  0.8398331636423938  0.3970766065127307  0.796494923581254  1.0000
  O   O8        1.0  0.8399019384107768  0.41093787623724043  0.41886541384852793  1.0000
  O   O9        1.0  0.839867815434821  0.21521020605991725  0.614587436863449  1.0000
