data_image0
_chemical_formula_structural       NC12NC2H8C10H6C12H10Zn2C4O8
_chemical_formula_sum              "N2 C40 H24 Zn2 O8"
_cell_length_a       17.80743265337812
_cell_length_b       10.30283237001006
_cell_length_c       10.299141136925906
_cell_angle_alpha    85.54410277028045
_cell_angle_beta     91.556080336852
_cell_angle_gamma    89.43531271068052

_space_group_name_H-M_alt    "P 1"
_space_group_IT_number       1

loop_
  _space_group_symop_operation_xyz
  'x, y, z'

loop_
  _atom_site_type_symbol
  _atom_site_label
  _atom_site_symmetry_multiplicity
  _atom_site_fract_x
  _atom_site_fract_y
  _atom_site_fract_z
  _atom_site_occupancy
  N   N1        1.0  0.7070985783625573  0.4066294635083523  0.601283221974682  1.0000
  C   C1        1.0  0.6562628810170632  0.4361976357240307  0.5325811780064691  1.0000
  C   C2        1.0  0.59301826073465  0.4729782946965506  0.4471244837644046  1.0000
  C   C3        1.0  0.604715664211013  0.5270163929143747  0.32049862720341715  1.0000
  C   C4        1.0  0.5433789519205481  0.5622932788949002  0.23743801934429443  1.0000
  C   C5        1.0  0.4701903804952058  0.5437956274023428  0.2803433336614827  1.0000
  C   C6        1.0  0.4575163119834361  0.4896386372424193  0.40743735727243413  1.0000
  C   C7        1.0  0.5197103365499737  0.45436500858575846  0.4904814525555832  1.0000
  C   C8        1.0  0.3797601955918826  0.4700264333125779  0.4532031054239336  1.0000
  C   C9        1.0  0.36100389185649634  0.4971706661128217  0.5802556001108481  1.0000
  C   C10       1.0  0.28778538383053914  0.4787145644708968  0.623201480764749  1.0000
  C   C11       1.0  0.2323804066957489  0.43285981261634343  0.539932877993325  1.0000
  C   C12       1.0  0.1570256226408089  0.4138506808290561  0.5842797543891642  1.0000
  N   N2        1.0  0.0964457125995434  0.39856861734467386  0.6199315922418296  1.0000
  C   C13       1.0  0.2504453448614904  0.40554657429373875  0.4134233804694487  1.0000
  C   C14       1.0  0.3236109377877879  0.42401752494993783  0.3702215981442065  1.0000
  H   H1        1.0  0.6611732225764628  0.5418448009339605  0.2860599816351914  1.0000
  H   H2        1.0  0.5525539782942623  0.6044035172824311  0.13965426359431077  1.0000
  H   H3        1.0  0.423535563300904  0.5734395588734502  0.21474942000454456  1.0000
  H   H4        1.0  0.5112336718059931  0.41086991637508485  0.5881407214570582  1.0000
  H   H5        1.0  0.4026954783925981  0.5343211952673275  0.6458334725354102  1.0000
  H   H6        1.0  0.2743648912161508  0.5005274263996924  0.7212166592153408  1.0000
  H   H7        1.0  0.20803696910315322  0.369662831702289  0.34825851785557127  1.0000
  H   H8        1.0  0.33650311583283093  0.4006695025756033  0.2725097353790782  1.0000
  C   C15       1.0  0.9017757131409666  0.021346409955908197  0.6106131625756013  1.0000
  C   C16       1.0  0.937905542834821  0.028938415299279763  0.49075555020542705  1.0000
  C   C17       1.0  0.9558808154961428  0.915612105209515  0.4311245240228112  1.0000
  C   C18       1.0  0.9379056448238023  0.7936358210494431  0.4907558270311023  1.0000
  C   C19       1.0  0.9017757666913572  0.7838415626790571  0.6106131916933828  1.0000
  C   C20       1.0  0.8838990803701745  0.8982926654310178  0.6699173557907736  1.0000
  C   C21       1.0  0.9929173229800704  0.9245234718269207  0.30825897318331874  1.0000
  C   C22       1.0  0.02392483775365939  0.9319842756355223  0.20539349896792847  1.0000
  C   C23       1.0  0.06023432663353212  0.9407207282794545  0.08493910916335157  1.0000
  C   C24       1.0  0.09123706906734785  0.9481804036187522  0.9820892831488677  1.0000
  H   H9        1.0  0.8880940421100048  0.34579378927293836  0.6560011284810574  1.0000
  H   H10       1.0  0.9521580192984468  0.12278598344208169  0.4434741026392517  1.0000
  H   H11       1.0  0.9521582552570657  0.7066468726769582  0.44347418261517535  1.0000
  H   H12       1.0  0.8560360648526616  0.89158872051448  0.7623500264411089  1.0000
  H   H13       1.0  0.8880938297887239  0.4528101822853883  0.6560009289810154  1.0000
  H   H14       1.0  0.11846003407652916  0.9547307421267802  0.8917785671776413  1.0000
  C   C25       1.0  0.9016903491476318  0.4027065504070315  0.22921608572441587  1.0000
  C   C26       1.0  0.9801634141526533  0.4150641707615552  0.23115941324545597  1.0000
  C   C27       1.0  0.020040306885078962  0.42121431549653043  0.1150152514360947  1.0000
  C   C28       1.0  0.9803834181165887  0.4148400722280823  0.9959042460422411  1.0000
  C   C29       1.0  0.9018611576815853  0.40248140734816595  0.9920102951628711  1.0000
  C   C30       1.0  0.8629981186824017  0.39648860396741736  0.10913525017501247  1.0000
  C   C31       1.0  0.10305691403502437  0.4342890699351851  0.11811586004555075  1.0000
  C   C32       1.0  0.14776759178201582  0.36236906002726044  0.03803395502101403  1.0000
  C   C33       1.0  0.22590105299583962  0.37483730198475373  0.04119005071972093  1.0000
  C   C34       1.0  0.26022640661781304  0.4590387015894082  0.12399221061577781  1.0000
  C   C35       1.0  0.21648772704790686  0.5309471997026656  0.20387599003793988  1.0000
  C   C36       1.0  0.1383345791455326  0.5188048699447592  0.20118876783345674  1.0000
  H   H15       1.0  0.8715005353244419  0.3980191743784782  0.5559389932844958  1.0000
  H   H16       1.0  0.010563333444027379  0.4181409685330837  0.3233678489889007  1.0000
  H   H17       1.0  0.010725143949857463  0.42132115943976056  0.9059316723221094  1.0000
  H   H18       1.0  0.8024698512803033  0.38696050025727025  0.10692039343077941  1.0000
  H   H19       1.0  0.7536056765181631  0.3799796836539726  0.7773030311777909  1.0000
  H   H20       1.0  0.12240692152025145  0.29531719249210586  0.9743079007813238  1.0000
  H   H21       1.0  0.2598737789231982  0.31889072410765595  0.9795886055760104  1.0000
  H   H22       1.0  0.32071445774324747  0.4685636517366387  0.1262539339907942  1.0000
  H   H23       1.0  0.24313867300061887  0.5964399485312986  0.26774405475602325  1.0000
  H   H24       1.0  0.10544522241595078  0.5766835732922848  0.26273797743923977  1.0000
  Zn  Zn1       1.0  0.8194557559571757  0.40429980899720674  0.6066722262921942  1.0000
  Zn  Zn2       1.0  0.9840885348821085  0.4008876785018869  0.6145531817575995  1.0000
  C   C37       1.0  0.9018271754064252  0.3973519028339103  0.8478257501269542  1.0000
  C   C38       1.0  0.9017189132463511  0.40783718548684944  0.37339987145854847  1.0000
  C   C39       1.0  0.9017707344041249  0.6397153476454565  0.6054374432463632  1.0000
  C   C40       1.0  0.9017752980863758  0.16547218199264768  0.6157882448936154  1.0000
  O   O1        1.0  0.9642057812294607  0.408258523735229  0.4247800486130664  1.0000
  O   O2        1.0  0.9642927772003586  0.3943398571776626  0.8024266619440976  1.0000
  O   O3        1.0  0.964246358455933  0.5900514210241719  0.6066963488828292  1.0000
  O   O4        1.0  0.9642521437740682  0.2125469703691787  0.6205102616032374  1.0000
  O   O5        1.0  0.8392920908841268  0.5926405182957228  0.6007151437503413  1.0000
  O   O6        1.0  0.8393385096097389  0.39693051429767756  0.7964453875609196  1.0000
  O   O7        1.0  0.839251513339188  0.41084913607292983  0.4187972127162414  1.0000
  O   O8        1.0  0.8392978759025245  0.21513757339222872  0.6145275230812954  1.0000
