data_image0
_chemical_formula_structural       NC12NC2H8C12H10C12H10Zn2C4O8
_chemical_formula_sum              "N2 C42 H28 Zn2 O8"
_cell_length_a       17.80743265337812
_cell_length_b       10.299137764757564
_cell_length_c       10.299141136925906
_cell_angle_alpha    85.52372998929182
_cell_angle_beta     91.556080336852
_cell_angle_gamma    89.45463381285008

_space_group_name_H-M_alt    "P 1"
_space_group_IT_number       1

loop_
  _space_group_symop_operation_xyz
  'x, y, z'

loop_
  _atom_site_type_symbol
  _atom_site_label
  _atom_site_symmetry_multiplicity
  _atom_site_fract_x
  _atom_site_fract_y
  _atom_site_fract_z
  _atom_site_occupancy
  N   N1        1.0  0.7073651396186024  0.407167670629178  0.6007942964494626  1.0000
  C   C1        1.0  0.6565350455462724  0.4367471562726277  0.5320819749813777  1.0000
  C   C2        1.0  0.5932973953287614  0.47354188832770516  0.4466124962758333  1.0000
  C   C3        1.0  0.6050050392157716  0.5276006627008432  0.3199678567970705  1.0000
  C   C4        1.0  0.5436750120199109  0.5628910463875716  0.23689498716578017  1.0000
  C   C5        1.0  0.4704829352242179  0.5443863172899945  0.2798067310183976  1.0000
  C   C6        1.0  0.4577986037713573  0.4902086054841064  0.4069195788723676  1.0000
  C   C7        1.0  0.5199859438605654  0.45492148036756586  0.4899759347954822  1.0000
  C   C8        1.0  0.3800387707978263  0.4705888974971666  0.4526921439627667  1.0000
  C   C9        1.0  0.3612876109905158  0.4977435162730788  0.5797352036786227  1.0000
  C   C10       1.0  0.28806560546805143  0.4792803529240137  0.6226874994257818  1.0000
  C   C11       1.0  0.23265193869567924  0.43340805604099897  0.5394348351507541  1.0000
  C   C12       1.0  0.15729355234306464  0.41439165094517216  0.5837883188657089  1.0000
  N   N2        1.0  0.09671074629674371  0.39910374020989603  0.6194454685585637  1.0000
  C   C13       1.0  0.250711700906201  0.40608436707752604  0.41293483134198783  1.0000
  C   C14       1.0  0.3238807941429463  0.42456238512242206  0.369726628762169  1.0000
  H   H1        1.0  0.6614654076169625  0.5424347443928448  0.2855240570732074  1.0000
  H   H2        1.0  0.5528580184326677  0.6050173970710182  0.1390965944620317  1.0000
  H   H3        1.0  0.423833735659727  0.574041591176017  0.2142025135286878  1.0000
  H   H4        1.0  0.5115010366428472  0.41140974598569025  0.5876503220073266  1.0000
  H   H5        1.0  0.4029862376832268  0.5349082600305428  0.6453001630777928  1.0000
  H   H6        1.0  0.2746492464681113  0.5011015609296687  0.7206950960182859  1.0000
  H   H7        1.0  0.2082965250517866  0.3701868945832938  0.3477824414354922  1.0000
  H   H8        1.0  0.3367685476552095  0.4012054292853493  0.2720228814562988  1.0000
  C   C15       1.0  0.9019692618963124  0.021737199374819438  0.6102581562694815  1.0000
  C   C16       1.0  0.9019053492563838  0.03163095661077664  0.47350035541510116  1.0000
  C   C17       1.0  0.9019471722742105  0.9195142564432481  0.404022202283046  1.0000
  C   C18       1.0  0.9020537266820684  0.7963727963489607  0.47315031857170986  1.0000
  C   C19       1.0  0.9021138089084872  0.7845240877841347  0.6099931630086641  1.0000
  C   C20       1.0  0.9020724661232468  0.8977240267137969  0.6777046802685105  1.0000
  C   C21       1.0  0.9018786692955165  0.9310258060895158  0.25934591784707917  1.0000
  C   C22       1.0  0.9471729107008343  0.8477931535941508  0.19164747454966236  1.0000
  C   C23       1.0  0.9470150587253655  0.8588812138724369  0.05546030489367726  1.0000
  C   C24       1.0  0.901751087312796  0.9528255976003155  0.9854411012690503  1.0000
  C   C25       1.0  0.8565505494796706  0.03594245793187745  0.051466816349677424  1.0000
  C   C26       1.0  0.8565195012171346  0.025353206628696334  0.18764581457366614  1.0000
  H   H9        1.0  0.9019555063192466  0.34540813721701813  0.6628624132735998  1.0000
  H   H10       1.0  0.9028625289843882  0.1267529870295221  0.4207427326193225  1.0000
  H   H11       1.0  0.9010513216437067  0.7096399237872738  0.42005233459957925  1.0000
  H   H12       1.0  0.9021197067122877  0.8893772578211977  0.7831890116918683  1.0000
  H   H13       1.0  0.9017495047565759  0.5548785997600681  0.8682539699254763  1.0000
  H   H14       1.0  0.9833946120874426  0.7753641079789414  0.24400652367361175  1.0000
  H   H15       1.0  0.9821770448294878  0.7947594054848942  0.004188801390694996  1.0000
  H   H16       1.0  0.9017020703476543  0.9612155488472208  0.8800264143369141  1.0000
  H   H17       1.0  0.8213394483579256  0.10847293758575471  0.9970874193190058  1.0000
  H   H18       1.0  0.8203453394110979  0.08970405217979915  0.2368013033501568  1.0000
  C   C27       1.0  0.9019561669977759  0.4032432565357198  0.22872852375114672  1.0000
  C   C28       1.0  0.9804315738155412  0.4156056051853938  0.23066755592918464  1.0000
  C   C29       1.0  0.020309632022136315  0.4217581030999209  0.11452125641204525  1.0000
  C   C30       1.0  0.9806515353120123  0.4153814209069331  0.9954124666196131  1.0000
  C   C31       1.0  0.9021269328663236  0.40301802733220793  0.9915228114463077  1.0000
  C   C32       1.0  0.8632627582097139  0.39702293097414176  0.1086498494764836  1.0000
  C   C33       1.0  0.10332871688426915  0.4348378602248728  0.11761732041231587  1.0000
  C   C34       1.0  0.14802576553513203  0.36289033215209576  0.0375604138180905  1.0000
  C   C35       1.0  0.22616158952488474  0.375363344730979  0.0407121757232114  1.0000
  C   C36       1.0  0.26050289960975137  0.4595969616281226  0.12348506834270845  1.0000
  C   C37       1.0  0.21677784695444813  0.5315329735015686  0.2033438533359031  1.0000
  C   C38       1.0  0.13862239803765952  0.5193859978233908  0.20066085164229985  1.0000
  H   H19       1.0  0.8717654649002577  0.3985540870148341  0.5554530605802317  1.0000
  H   H20       1.0  0.010832076170970373  0.41868358020687535  0.3228749222190137  1.0000
  H   H21       1.0  0.010994489334219315  0.42186498792397464  0.9054376401605393  1.0000
  H   H22       1.0  0.8027326851982789  0.3874911816036435  0.10643830457323755  1.0000
  H   H23       1.0  0.7538671875467136  0.3805076939876144  0.7768233687584214  1.0000
  H   H24       1.0  0.12265238870742823  0.29581280910956864  0.9738576659077518  1.0000
  H   H25       1.0  0.26012371337795326  0.3193953604726125  0.979130176859194  1.0000
  H   H26       1.0  0.320992755746911  0.46912555622908325  0.12574348097287302  1.0000
  H   H27       1.0  0.24344120401459257  0.5970507812847425  0.2671891536533757  1.0000
  H   H28       1.0  0.10574400952697482  0.5772868468255421  0.2621899433875039  1.0000
  Zn  Zn1       1.0  0.8197218757354549  0.4048371247413909  0.6061841105236196  1.0000
  Zn  Zn2       1.0  0.9843540080495965  0.4014236886905018  0.6140662519997959  1.0000
  C   C39       1.0  0.9020919785319246  0.3978865601576158  0.8473400493573242  1.0000
  C   C40       1.0  0.9019857033699806  0.40837585470845283  0.372910526145376  1.0000
  C   C41       1.0  0.902081466259218  0.6403427385107301  0.6048675001957182  1.0000
  C   C42       1.0  0.9019961591850356  0.16591811707629667  0.6153831424032348  1.0000
  O   O1        1.0  0.9644726511981777  0.40879735417003804  0.4242905568483728  1.0000
  O   O2        1.0  0.9645570095325577  0.39487336202698664  0.8019420081211175  1.0000
  O   O3        1.0  0.9645476788213598  0.5906598093876145  0.6061436683466117  1.0000
  O   O4        1.0  0.9644819257115439  0.21301091729387944  0.6200887965481383  1.0000
  O   O5        1.0  0.8395939018926395  0.5932498973042675  0.6001615632786568  1.0000
  O   O6        1.0  0.8396032328806211  0.39746501038893567  0.79595983326029  1.0000
  O   O7        1.0  0.8395188742381013  0.41138895773253825  0.41830682048946377  1.0000
  O   O8        1.0  0.8395281487684313  0.215602511538165  0.61410515756735  1.0000
