data_image0
_chemical_formula_structural       NC12NC2H8C12H16C7NC2OH7Zn2C4O8
_chemical_formula_sum              "N3 C39 H31 O9 Zn2"
_cell_length_a       17.80743265337812
_cell_length_b       10.298977702784466
_cell_length_c       10.300337369960102
_cell_angle_alpha    85.54183564303159
_cell_angle_beta     91.53453705670806
_cell_angle_gamma    89.4320624770977

_space_group_name_H-M_alt    "P 1"
_space_group_IT_number       1

loop_
  _space_group_symop_operation_xyz
  'x, y, z'

loop_
  _atom_site_type_symbol
  _atom_site_label
  _atom_site_symmetry_multiplicity
  _atom_site_fract_x
  _atom_site_fract_y
  _atom_site_fract_z
  _atom_site_occupancy
  N   N1        1.0  0.7073521250070306  0.40678171631158433  0.6010263363302439  1.0000
  C   C1        1.0  0.6565303870731629  0.4363415337444674  0.5323247586954358  1.0000
  C   C2        1.0  0.5933031304815536  0.4731118010498325  0.4468686439920555  1.0000
  C   C3        1.0  0.6050262802822683  0.5271343163583571  0.32024379905020117  1.0000
  C   C4        1.0  0.5437064628300796  0.5624009127534395  0.23718391090070678  1.0000
  C   C5        1.0  0.4705091747888477  0.5439084661328903  0.2800889445623924  1.0000
  C   C6        1.0  0.45780926168006925  0.48976714890558304  0.4071819260318006  1.0000
  C   C7        1.0  0.5199863949101379  0.4545038062841784  0.4902253029917578  1.0000
  C   C8        1.0  0.38004384302807936  0.47016054438470656  0.452947335534712  1.0000
  C   C9        1.0  0.3612586063981056  0.4973530079959769  0.5799718793304092  1.0000
  C   C10       1.0  0.2880313712655543  0.47890213979885  0.6229174595184261  1.0000
  C   C11       1.0  0.2326464255973145  0.43300453505180747  0.5396764663104281  1.0000
  C   C12       1.0  0.1572826278682557  0.41400082708707164  0.5840230161999238  1.0000
  N   N2        1.0  0.09669547145419291  0.39872312397118903  0.6196745915736268  1.0000
  C   C13       1.0  0.2507401838626858  0.40564315786738114  0.4131948945759105  1.0000
  C   C14       1.0  0.323914559521888  0.42410880578606247  0.3699934459984051  1.0000
  H   H1        1.0  0.6614908359057307  0.5419585389788608  0.2858053850551132  1.0000
  H   H2        1.0  0.5529013566791785  0.6044992700977878  0.13940081034280682  1.0000
  H   H3        1.0  0.4238676316227956  0.5735449870378699  0.2144950082175845  1.0000
  H   H4        1.0  0.5114899427863563  0.41102000372809977  0.5878843937418186  1.0000
  H   H5        1.0  0.40293437769079  0.5345377015338992  0.6455276643842567  1.0000
  H   H6        1.0  0.2745885250145612  0.5007525590527329  0.7209107863503146  1.0000
  H   H7        1.0  0.2083474843951555  0.36972587981501426  0.3480516383115735  1.0000
  H   H8        1.0  0.3368290830867199  0.4007227002681719  0.27230389779522546  1.0000
  C   C15       1.0  0.9020418896020582  0.021347057718573037  0.6104824330815248  1.0000
  C   C16       1.0  0.9038231846786583  0.009509161508229225  0.7473206233400336  1.0000
  C   C17       1.0  0.9048982174811796  0.886284838510035  0.8165692690868345  1.0000
  C   C18       1.0  0.9037818059141846  0.7742473862770577  0.7470175219470674  1.0000
  C   C19       1.0  0.9020128936449504  0.7841476168026184  0.6102299987093005  1.0000
  C   C20       1.0  0.9012097493249794  0.9081480532131619  0.5427704682062724  1.0000
  C   C21       1.0  0.9066557141398377  0.8732902316744342  0.9645371734820334  1.0000
  C   C22       1.0  0.8332108318229993  0.9265595257450333  0.01955071748919679  1.0000
  C   C23       1.0  0.843649817071392  0.9720653403307434  0.15801525085293844  1.0000
  C   C24       1.0  0.9062045025309058  0.8951953640068774  0.23595297290977824  1.0000
  C   C25       1.0  0.9828520759603105  0.9120008867789503  0.17071070101836128  1.0000
  C   C26       1.0  0.9765277140767517  0.9381935480784226  0.02126710296068346  1.0000
  H   H9        1.0  0.8983541194098456  0.2510155881675704  0.35216914496030927  1.0000
  H   H10       1.0  0.9040871605089424  0.09624839994990553  0.8003439804419175  1.0000
  H   H11       1.0  0.904314486819175  0.679089211612008  0.799828673241157  1.0000
  H   H12       1.0  0.8998426855980867  0.9164858912244691  0.43726476441081474  1.0000
  H   H13       1.0  0.9010937612768205  0.4604807723755072  0.557564945021104  1.0000
  H   H14       1.0  0.9110508571225281  0.7679861035810008  0.9983241015104245  1.0000
  H   H15       1.0  0.7904791706674659  0.8484647480031432  0.020996615852728273  1.0000
  H   H16       1.0  0.8097951450699173  0.009911574591576322  0.9555531486818136  1.0000
  H   H17       1.0  0.8579021650717689  0.07725554417599811  0.15157862406327627  1.0000
  H   H18       1.0  0.7900122980890685  0.9609010850584523  0.21027070973416695  1.0000
  H   H19       1.0  0.891308985036587  0.790293536150245  0.2445122874443837  1.0000
  H   H20       1.0  0.9102594762045636  0.927993178348433  0.33615683711811783  1.0000
  H   H21       1.0  0.017272739181513064  0.8224147487363962  0.1955916934490558  1.0000
  H   H22       1.0  0.01316228322742985  0.9941547061669704  0.2115478171170747  1.0000
  H   H23       1.0  0.9733715873833453  0.04520106496739329  0.9967679742631024  1.0000
  H   H24       1.0  0.02816377899929945  0.9010530398212886  0.9775110654283758  1.0000
  C   C27       1.0  0.9020257454064371  0.4027478347638036  0.22901603608070564  1.0000
  C   C28       1.0  0.9795259320576163  0.37552020510001793  0.23370535037675544  1.0000
  C   C29       1.0  0.01862757827897399  0.36178266032718387  0.11898278230385828  1.0000
  C   C30       1.0  0.9795327575882684  0.3755184562710072  0.9984133864373024  1.0000
  C   C31       1.0  0.9020290312643714  0.40274684398490956  0.9916963862533681  1.0000
  C   C32       1.0  0.8637078261492883  0.41620939696187254  0.10753525097674022  1.0000
  C   C33       1.0  0.10020175977171775  0.3331212624114641  0.12566173215699594  1.0000
  N   N3        1.0  0.14202856711006762  0.3184242323866071  0.020162003080695712  1.0000
  C   C34       1.0  0.21153881369923355  0.2940006561308699  0.071404379087324  1.0000
  C   C35       1.0  0.20956288947488222  0.2946955506843547  0.2047268695993263  1.0000
  O   O1        1.0  0.1401984290904874  0.3190681233602728  0.23513977893057314  1.0000
  H   H25       1.0  0.8725028835272531  0.41313182812021987  0.5546562235359216  1.0000
  H   H26       1.0  0.009611420255614345  0.3649497180486452  0.32679552087743224  1.0000
  H   H27       1.0  0.00955443691940272  0.36497125886317083  0.9097032216513852  1.0000
  H   H28       1.0  0.8039288147088062  0.43721108449613677  0.10313472034332172  1.0000
  H   H29       1.0  0.8724894730923172  0.4131319293411717  0.6617075417100788  1.0000
  H   H30       1.0  0.2605155968653736  0.2767915770987457  0.014975235426051725  1.0000
  H   H31       1.0  0.2562567138626648  0.27828921025258313  0.2735893395482223  1.0000
  Zn  Zn1       1.0  0.8197082080153315  0.4044527130171687  0.6064153074849803  1.0000
  Zn  Zn2       1.0  0.9843393864004203  0.4010415327827148  0.6142962161778163  1.0000
  C   C36       1.0  0.9020269386012182  0.3975729285191387  0.8475351351980212  1.0000
  C   C37       1.0  0.9020224535201489  0.40792291880650144  0.3731766014386557  1.0000
  C   C38       1.0  0.9020144887324547  0.6399621984451664  0.6051027739198651  1.0000
  C   C39       1.0  0.9020348472714049  0.16553208959296306  0.6156090297773582  1.0000
  O   O2        1.0  0.9644980231629398  0.40835953288285487  0.42454896974794365  1.0000
  O   O3        1.0  0.9645026240821688  0.3945463277586758  0.8021438207411078  1.0000
  O   O4        1.0  0.9644917284460768  0.5902787461037853  0.6063779329954504  1.0000
  O   O5        1.0  0.9645088626207886  0.21262712499297964  0.6203147574339705  1.0000
  O   O6        1.0  0.8395386756144217  0.5928671219723864  0.6003967635326277  1.0000
  O   O7        1.0  0.8395495711874794  0.3971362640802705  0.7961625815215401  1.0000
  O   O8        1.0  0.8395449703131879  0.41094942394507217  0.4185661692626368  1.0000
  O   O9        1.0  0.8395558097687386  0.21521700676544508  0.6143320543120951  1.0000
