data_image0
_chemical_formula_structural       NC12NC2H8C6NCOCH9C12H16Zn2C4O8
_chemical_formula_sum              "N3 C38 H33 O9 Zn2"
_cell_length_a       17.80743265337812
_cell_length_b       10.300268703208216
_cell_length_c       10.298981074953016
_cell_angle_alpha    85.56445429356951
_cell_angle_beta     91.51542336112495
_cell_angle_gamma    89.41550465668445

_space_group_name_H-M_alt    "P 1"
_space_group_IT_number       1

loop_
  _space_group_symop_operation_xyz
  'x, y, z'

loop_
  _atom_site_type_symbol
  _atom_site_label
  _atom_site_symmetry_multiplicity
  _atom_site_fract_x
  _atom_site_fract_y
  _atom_site_fract_z
  _atom_site_occupancy
  N   N1        1.0  0.7073947899828187  0.4064680864062138  0.601307294097629  1.0000
  C   C1        1.0  0.6565815570113317  0.4360183120971248  0.5326070261604108  1.0000
  C   C2        1.0  0.5933648792668919  0.47277664825127963  0.44715254105367586  1.0000
  C   C3        1.0  0.6051037792162548  0.526781552445988  0.3205299648261193  1.0000
  C   C4        1.0  0.5437943206193525  0.5620366217187529  0.23747151125848753  1.0000
  C   C5        1.0  0.4705917262998394  0.5435501699637191  0.2803757169012182  1.0000
  C   C6        1.0  0.45787599169067317  0.4894265170637888  0.4074664468353517  1.0000
  C   C7        1.0  0.520042768733884  0.45417469982550407  0.4905083883117005  1.0000
  C   C8        1.0  0.3801048937558703  0.4698262896245431  0.4532310106163637  1.0000
  C   C9        1.0  0.3612906590871638  0.4970244563424908  0.5802789917618145  1.0000
  C   C10       1.0  0.2880581030849826  0.4785795799952699  0.6232237618062093  1.0000
  C   C11       1.0  0.23269671361412073  0.43268236536192584  0.5399585387072094  1.0000
  C   C12       1.0  0.1573274134815053  0.4136848375007145  0.5843042675260572  1.0000
  N   N2        1.0  0.09673583351825181  0.3984121027672147  0.619955182806206  1.0000
  C   C13       1.0  0.2508193922070295  0.40531535136565267  0.413453539715954  1.0000
  C   C14       1.0  0.3239991358677686  0.4237749857221391  0.37025287604686397  1.0000
  H   H1        1.0  0.6615725970962815  0.5416009659898033  0.2860922094392757  1.0000
  H   H2        1.0  0.5530013154143258  0.6041213233229223  0.13969028294941266  1.0000
  H   H3        1.0  0.42395807410787356  0.5731773251699745  0.21478347769532036  1.0000
  H   H4        1.0  0.5115344643446563  0.41070474719868333  0.5881651545967364  1.0000
  H   H5        1.0  0.4029477104875189  0.5342086900058112  0.645854186949723  1.0000
  H   H6        1.0  0.274592744710407  0.5004342706294849  0.721235445163295  1.0000
  H   H7        1.0  0.2084451272431931  0.36939837838215794  0.3482913219638455  1.0000
  H   H8        1.0  0.33693636179353503  0.40038485776685206  0.2725445216326132  1.0000
  C   C15       1.0  0.9021452295527028  0.021090808495303426  0.6106427204400309  1.0000
  C   C16       1.0  0.9148361319322871  0.030204846512415617  0.47624661272337643  1.0000
  C   C17       1.0  0.9222558483969473  0.9174758490319195  0.4088508379667537  1.0000
  C   C18       1.0  0.914666172836009  0.7950488465951029  0.4762708722919047  1.0000
  C   C19       1.0  0.9019925717216626  0.7837792872550822  0.6106312773367486  1.0000
  C   C20       1.0  0.8960818110919337  0.8973957232338867  0.6772003101786668  1.0000
  N   N3        1.0  0.9340794350934103  0.9252409445210467  0.27087050827160386  1.0000
  C   C21       1.0  0.9781963612682434  0.023430889264931976  0.20319872157523422  1.0000
  O   O1        1.0  0.020604790707854814  0.0955530324645999  0.26520301916039823  1.0000
  C   C22       1.0  0.9782549648763096  0.034305465490263254  0.05771485820641109  1.0000
  H   H9        1.0  0.8962277976501162  0.3450969279269107  0.6613828716304193  1.0000
  H   H10       1.0  0.9174624977423965  0.12499604422496158  0.4235377944951564  1.0000
  H   H11       1.0  0.9193397740869192  0.7085861859308952  0.423332433596874  1.0000
  H   H12       1.0  0.8863141708639141  0.88955660022432  0.7808626386129622  1.0000
  H   H13       1.0  0.8960795000887882  0.45214803138897786  0.6611835843043856  1.0000
  H   H14       1.0  0.9133962379455306  0.8502412201991187  0.2176967919738826  1.0000
  H   H15       1.0  0.9207637176466476  0.01845739394258672  0.018140578384833184  1.0000
  H   H16       1.0  0.9968874250896043  0.1325772200222799  0.020737531225749395  1.0000
  H   H17       1.0  0.01703835999585057  0.9597749722083455  0.02382135059466539  1.0000
  C   C23       1.0  0.9021410749770225  0.4024063888422902  0.22925224045269554  1.0000
  C   C24       1.0  0.9751779333824904  0.3490437895293137  0.23555005237922733  1.0000
  C   C25       1.0  0.012204120506422278  0.3223168278177502  0.12148802623093524  1.0000
  C   C26       1.0  0.9750021350870832  0.34910207968650875  0.00025159414017683623  1.0000
  C   C27       1.0  0.9019967157535291  0.40246364447568506  0.9920217274044894  1.0000
  C   C28       1.0  0.8660185314379975  0.4288908295694098  0.10707476611664068  1.0000
  C   C29       1.0  0.0911182757308917  0.2643440232439078  0.1281191866833098  1.0000
  C   C30       1.0  0.09273064187609492  0.12422578591674105  0.19531809655094312  1.0000
  C   C31       1.0  0.16986731602973504  0.08404819132197328  0.25840211545524117  1.0000
  C   C32       1.0  0.23449444389634455  0.15212507278277587  0.1863527531572875  1.0000
  C   C33       1.0  0.22867072039357894  0.3015699916536918  0.18757452756081738  1.0000
  C   C34       1.0  0.1472672340262713  0.352841417060173  0.19435274547721115  1.0000
  H   H18       1.0  0.7641456618788732  0.5026200713029225  0.4247145082635704  1.0000
  H   H19       1.0  0.0033194136662921814  0.3276842532427555  0.3293548732489595  1.0000
  H   H20       1.0  0.0031319416291752944  0.3282598026803487  0.9121064544701167  1.0000
  H   H21       1.0  0.8097076792136185  0.47004483197754876  0.10142890103867064  1.0000
  H   H22       1.0  0.8737995815188931  0.42262765959202286  0.6613959836266008  1.0000
  H   H23       1.0  0.11063192386337573  0.25749706075380785  0.026939010754236214  1.0000
  H   H24       1.0  0.07750529651780447  0.055257019279634  0.12124164115585057  1.0000
  H   H25       1.0  0.0501218344964236  0.1130484639130862  0.2722096814550621  1.0000
  H   H26       1.0  0.17179633872398403  0.10949743498647191  0.36145584793482133  1.0000
  H   H27       1.0  0.17743290991372018  0.976756575199087  0.2590256199285368  1.0000
  H   H28       1.0  0.23344736717838566  0.12477460037235821  0.08392874373679615  1.0000
  H   H29       1.0  0.2890070879112281  0.11744982453138242  0.23218480045992007  1.0000
  H   H30       1.0  0.2547097914577181  0.3464252173271811  0.09823375271982204  1.0000
  H   H31       1.0  0.26161049993166463  0.33329335444422825  0.27247500098859545  1.0000
  H   H32       1.0  0.1331291949788722  0.3578554906135092  0.298367261958441  1.0000
  H   H33       1.0  0.14344782835797232  0.453438998413066  0.14673995140016172  1.0000
  Zn  Zn1       1.0  0.8197502075335129  0.4041398370082001  0.606696159257873  1.0000
  Zn  Zn2       1.0  0.9843804135891462  0.4007297600488757  0.6145769112960147  1.0000
  C   C35       1.0  0.9020233799853193  0.39727947722460377  0.8478419943650688  1.0000
  C   C36       1.0  0.9021090385420123  0.4075917211390694  0.3734312896935814  1.0000
  C   C37       1.0  0.9020185500740788  0.6396146025154694  0.6054578799933041  1.0000
  C   C38       1.0  0.9021138125756318  0.16525503679502807  0.6158154706410843  1.0000
  O   O2        1.0  0.9645745931762364  0.4080321941433551  0.42480980012318836  1.0000
  O   O3        1.0  0.9645083427304708  0.3942498550120135  0.8024444185373292  1.0000
  O   O4        1.0  0.9645036000500459  0.5899385509769488  0.6067174909373634  1.0000
  O   O5        1.0  0.9645792796960914  0.2123435086244756  0.620536627655133  1.0000
  O   O6        1.0  0.8395512852463591  0.5925260895977049  0.6007364402026096  1.0000
  O   O7        1.0  0.8395560276241962  0.3968389538510504  0.7964632985306923  1.0000
  O   O8        1.0  0.8396222784244548  0.41062124761044005  0.4188271186540393  1.0000
  O   O9        1.0  0.8396269649246711  0.21493255281060986  0.6145540435578598  1.0000
