data_image0
_chemical_formula_structural       NC12NC2H8C10H6C10H6Zn2C4O8
_chemical_formula_sum              "N2 C38 H20 Zn2 O8"
_cell_length_a       17.80743265337812
_cell_length_b       10.30283237001006
_cell_length_c       10.302835742178797
_cell_angle_alpha    85.5607083319168
_cell_angle_beta     91.5341157365678
_cell_angle_gamma    89.43531271068052

_space_group_name_H-M_alt    "P 1"
_space_group_IT_number       1

loop_
  _space_group_symop_operation_xyz
  'x, y, z'

loop_
  _atom_site_type_symbol
  _atom_site_label
  _atom_site_symmetry_multiplicity
  _atom_site_fract_x
  _atom_site_fract_y
  _atom_site_fract_z
  _atom_site_occupancy
  N   N1        1.0  0.7074116626139269  0.4062165092770875  0.6018314174447033  1.0000
  C   C1        1.0  0.6565913433123234  0.43576439804425204  0.5331562996919159  1.0000
  C   C2        1.0  0.5933658513806683  0.4725198269601716  0.4477330982722745  1.0000
  C   C3        1.0  0.605091598380272  0.5265205404235724  0.32115686985763103  1.0000
  C   C4        1.0  0.5437734781083192  0.5617729037630559  0.23812881572895672  1.0000
  C   C5        1.0  0.4705753028958315  0.5432879195462252  0.28101731427663545  1.0000
  C   C6        1.0  0.4578727860678188  0.4891684523613906  0.40806152625373415  1.0000
  C   C7        1.0  0.5200482223119661  0.4539193414706335  0.4910730742781666  1.0000
  C   C8        1.0  0.3801064256188382  0.4695697602158102  0.4538093375532468  1.0000
  C   C9        1.0  0.3613216828629092  0.4967515037302297  0.5808120368826339  1.0000
  C   C10       1.0  0.2880935619695686  0.47830808134075253  0.6237410858679648  1.0000
  C   C11       1.0  0.2327072234102004  0.432428745437172  0.5405051183459009  1.0000
  C   C12       1.0  0.1573425128935098  0.4134327065293999  0.5848346139845118  1.0000
  N   N2        1.0  0.0967546226598712  0.39816116881944574  0.6204724789040459  1.0000
  C   C13       1.0  0.25080047905375136  0.40507815671374403  0.4140452033640707  1.0000
  C   C14       1.0  0.3239757421276367  0.42353635256561817  0.37086035300228204  1.0000
  H   H1        1.0  0.6615568653810477  0.5413387808490961  0.28673172173920425  1.0000
  H   H2        1.0  0.5529703920824727  0.603854272677995  0.14038338411491402  1.0000
  H   H3        1.0  0.42393516803155834  0.5729124852067446  0.215449108673603  1.0000
  H   H4        1.0  0.511549697832281  0.41045308197931263  0.5886940678335113  1.0000
  H   H5        1.0  0.4029985906596  0.5339213939593432  0.6463642075402898  1.0000
  H   H6        1.0  0.2746511299538303  0.5001498810668956  0.7217178494817122  1.0000
  H   H7        1.0  0.2084066895880414  0.36917517498384345  0.3489058806472267  1.0000
  H   H8        1.0  0.3368897916808251  0.40015948194422823  0.273186786196262  1.0000
  C   C15       1.0  0.9020867090085299  0.020936210276893963  0.6111577013859946  1.0000
  C   C16       1.0  0.93824336724368  0.028492829108174522  0.49134706450162335  1.0000
  C   C17       1.0  0.9562319875215343  0.9151489136783125  0.43173940935375854  1.0000
  C   C18       1.0  0.9382434691706976  0.793190234940067  0.4913473412188034  1.0000
  C   C19       1.0  0.9020867625524032  0.7834313630086396  0.6111577304923637  1.0000
  C   C20       1.0  0.8841968017784425  0.8978999745986155  0.6704386516612204  1.0000
  C   C21       1.0  0.9932959968340006  0.9240240057261321  0.30892201289365917  1.0000
  C   C22       1.0  0.024326536683496602  0.9314544397461564  0.2060968544790598  1.0000
  C   C23       1.0  0.06066298768540013  0.9401553296866695  0.0856896740537314  1.0000
  C   C24       1.0  0.09168875169248092  0.947584639857332  0.9828801577070805  1.0000
  H   H9        1.0  0.8883948784817005  0.3453969898425402  0.656527878502688  1.0000
  H   H10       1.0  0.9525064270340001  0.12232643797477438  0.44408414783160866  1.0000
  H   H11       1.0  0.9525066629747174  0.7061873272332628  0.44408422777618806  1.0000
  H   H12       1.0  0.8563130964301168  0.891223319311438  0.7628350954126377  1.0000
  H   H13       1.0  0.8883946662050749  0.45241338279609017  0.6565276790808354  1.0000
  H   H14       1.0  0.11893193156098514  0.9541083152174842  0.8926048369825308  1.0000
  C   C25       1.0  0.9020867157065005  0.40218374784861255  0.22991010451037974  1.0000
  C   C26       1.0  0.8655011020045873  0.5240982220125745  0.21767952776150734  1.0000
  C   C27       1.0  0.8472992731566577  0.5847528189118849  0.09449115226116511  1.0000
  C   C28       1.0  0.8655012923812703  0.5240982778386156  0.9823769836891589  1.0000
  C   C29       1.0  0.902086751497802  0.4021838288971482  0.9924053002207165  1.0000
  C   C30       1.0  0.9201888807423274  0.34186175219345416  0.11666441928212734  1.0000
  C   C31       1.0  0.8097954634436151  0.7097268638668128  0.08308250925338223  1.0000
  C   C32       1.0  0.7783964717182049  0.8143573427535893  0.07353087336094322  1.0000
  C   C33       1.0  0.74162857280356  0.9368786047857207  0.0623460836863301  1.0000
  C   C34       1.0  0.7102343002517972  0.04149303180333952  0.0527960425084717  1.0000
  H   H15       1.0  0.9159410530701646  0.3560170502651576  0.5618638451428453  1.0000
  H   H16       1.0  0.8510687751822785  0.572191194778612  0.3037073791075582  1.0000
  H   H17       1.0  0.8510689943662293  0.5721913323299737  0.8875685119622956  1.0000
  H   H18       1.0  0.948403157963126  0.2478427193847128  0.12524734545974825  1.0000
  H   H19       1.0  0.9159408404700095  0.3560167955004423  0.6688804815473293  1.0000
  H   H20       1.0  0.6826675054250224  0.1333532194457825  0.0444103322344549  1.0000
  Zn  Zn1       1.0  0.8197676339512033  0.4038884458043639  0.6072183096636106  1.0000
  Zn  Zn2       1.0  0.9843986488284888  0.4004786420659381  0.6150961763664062  1.0000
  C   C35       1.0  0.902085074373633  0.39701173730568207  0.8482773188178987  1.0000
  C   C36       1.0  0.9020830061717545  0.40735695144933026  0.37403738066413683  1.0000
  C   C37       1.0  0.9020828887880062  0.6393036198978366  0.6059840105631238  1.0000
  C   C38       1.0  0.9020851355802079  0.16506351019416932  0.6163307554473034  1.0000
  O   O1        1.0  0.9645583733817608  0.4077934590743071  0.42539742051794627  1.0000
  O   O2        1.0  0.9645608381530089  0.3939862881170999  0.8028960237829306  1.0000
  O   O3        1.0  0.9645582310504379  0.5896400649532327  0.6072424227999409  1.0000
  O   O4        1.0  0.9645609243069131  0.2121396926890884  0.6210509214690589  1.0000
  O   O5        1.0  0.8396053022922932  0.5922273963462257  0.6012635618657998  1.0000
  O   O6        1.0  0.8396079093915518  0.39657517933811093  0.7969170936252405  1.0000
  O   O7        1.0  0.8396054446701748  0.4103823050519868  0.4194169294586094  1.0000
  O   O8        1.0  0.83960799559226  0.21472852938086606  0.6150705277464412  1.0000
