data_image0
_chemical_formula_structural       NC12NC2H8C12H16C9NC2H9Zn2C4O8
_chemical_formula_sum              "N3 C41 H33 Zn2 O8"
_cell_length_a       17.80743265337812
_cell_length_b       10.298977702784466
_cell_length_c       9.273598843048156
_cell_angle_alpha    85.09724684931369
_cell_angle_beta     91.13569736745053
_cell_angle_gamma    89.4320624770977

_space_group_name_H-M_alt    "P 1"
_space_group_IT_number       1

loop_
  _space_group_symop_operation_xyz
  'x, y, z'

loop_
  _atom_site_type_symbol
  _atom_site_label
  _atom_site_symmetry_multiplicity
  _atom_site_fract_x
  _atom_site_fract_y
  _atom_site_fract_z
  _atom_site_occupancy
  N   N1        1.0  0.7129142054706014  0.4175630174596656  0.44540898283886476  1.0000
  C   C1        1.0  0.6623656132811481  0.44765228903244014  0.3690652615598604  1.0000
  C   C2        1.0  0.599478115613118  0.4850811306423033  0.27410328212496604  1.0000
  C   C3        1.0  0.6117047041807971  0.5400794903298896  0.1333930946439119  1.0000
  C   C4        1.0  0.550715118664477  0.5759861943200759  0.041093890336593386  1.0000
  C   C5        1.0  0.47734724753385904  0.5571630966653522  0.08877154264241804  1.0000
  C   C6        1.0  0.46414203442719953  0.502042327327821  0.2300019406602678  1.0000
  C   C7        1.0  0.5259890013670707  0.4661390043560998  0.3222827971261628  1.0000
  C   C8        1.0  0.3861946603197826  0.482083028060196  0.28085814786240837  1.0000
  C   C9        1.0  0.3669043957884353  0.5082965669815858  0.42201249541873054  1.0000
  C   C10       1.0  0.2935064163604309  0.48951473527527334  0.4697352045167229  1.0000
  C   C11       1.0  0.2384524226708554  0.4442586338237873  0.3772347496037476  1.0000
  C   C12       1.0  0.1629123106299744  0.42491316566609494  0.4265142677895679  1.0000
  N   N2        1.0  0.10218340963841811  0.4093607108658244  0.4661316103192452  1.0000
  C   C13       1.0  0.25704905007337747  0.41787199687212184  0.23668377258312545  1.0000
  C   C14       1.0  0.3303951873170691  0.4366705801699624  0.18867673311480226  1.0000
  H   H1        1.0  0.6683061810592142  0.5551691153106988  0.09512386168236975  1.0000
  H   H2        1.0  0.5602987814285345  0.6188381248600356  0.932433710588306  1.0000
  H   H3        1.0  0.4309664946609674  0.5873051224269181  0.015881146725752027  1.0000
  H   H4        1.0  0.5171042733701564  0.42190258429579863  0.4308051726124298  1.0000
  H   H5        1.0  0.4083195284709792  0.5449760496788614  0.49486049621691763  1.0000
  H   H6        1.0  0.2796739653707024  0.5106099612081427  0.5786289954369719  1.0000
  H   H7        1.0  0.2149153490719446  0.38245675047466876  0.16429418895686032  1.0000
  H   H8        1.0  0.3436981078486678  0.4140373268790649  0.08012051218579797  1.0000
  C   C15       1.0  0.9075663742392257  0.03205548470940034  0.45591694553230533  1.0000
  C   C16       1.0  0.9088036240314343  0.019163034166799875  0.6079765781793147  1.0000
  C   C17       1.0  0.9096033360401199  0.8954050410050556  0.6849282216764174  1.0000
  C   C18       1.0  0.9087634503463559  0.783903594810478  0.6076397607573498  1.0000
  C   C19       1.0  0.907538381918088  0.7948579891988937  0.4556364311683301  1.0000
  C   C20       1.0  0.9070034451751693  0.9193783078149056  0.38067291836937067  1.0000
  C   C21       1.0  0.9107725375709675  0.88127010781524  0.849355602244487  1.0000
  C   C22       1.0  0.8371089307946912  0.9341154356593353  0.9104886768381801  1.0000
  C   C23       1.0  0.8469974046961444  0.9785541623710627  0.06435556179298829  1.0000
  C   C24       1.0  0.909242223077753  0.9010835528300664  0.1509628266429477  1.0000
  C   C25       1.0  0.9861491886424854  0.9183918703288112  0.07846321320810612  1.0000
  C   C26       1.0  0.9804189889928185  0.9457362305323832  0.9123959875369103  1.0000
  H   H9        1.0  0.9049056135831117  0.2637147269366884  0.16886971386876914  1.0000
  H   H10       1.0  0.9088567880456652  0.10549364391471094  0.6668980838451817  1.0000
  H   H11       1.0  0.9090861631293582  0.6883384268324984  0.6663254555204425  1.0000
  H   H12       1.0  0.9060558541153578  0.9285292338742579  0.2634310977124803  1.0000
  H   H13       1.0  0.906828636812806  0.4715970121719613  0.39711308544128276  1.0000
  H   H14       1.0  0.9150333494956896  0.7757055980896128  0.8869008800252176  1.0000
  H   H15       1.0  0.7943715209940984  0.8560095149873872  0.9120954123086515  1.0000
  H   H16       1.0  0.8139476874499618  0.017960686829821437  0.8393722232752663  1.0000
  H   H17       1.0  0.8612753436258201  0.08379397058958005  0.05720294523709191  1.0000
  H   H18       1.0  0.7931521269300024  0.9669871962733567  0.12242375069748501  1.0000
  H   H19       1.0  0.894312675210032  0.7961157619392362  0.16047425193572262  1.0000
  H   H20       1.0  0.9128988032934344  0.933109138169542  0.2623130480434641  1.0000
  H   H21       1.0  0.020470929285295814  0.8286139849508893  0.1061118876151339  1.0000
  H   H22       1.0  0.016297034507428032  0.0002309752528548703  0.12384291941879622  1.0000
  H   H23       1.0  0.9773602666527906  0.05293255189367074  0.8851716541626655  1.0000
  H   H24       1.0  0.0322290204508644  0.9089329316380368  0.863772668413193  1.0000
  C   C27       1.0  0.9090668753167551  0.4163960627035288  0.03201744725962907  1.0000
  C   C28       1.0  0.8588599501457462  0.49946901282809164  0.09571644647363486  1.0000
  C   C29       1.0  0.8049488159445867  0.5724069776487644  0.01205424662445842  1.0000
  C   C30       1.0  0.7997734198544608  0.5643464341362516  0.8620613214832771  1.0000
  C   C31       1.0  0.8505475474592256  0.48321029159633677  0.796982407092675  1.0000
  C   C32       1.0  0.9060378566396753  0.41051745527544936  0.8795359486912973  1.0000
  C   C33       1.0  0.7419528055057617  0.6415105322658321  0.7733568921142524  1.0000
  C   C34       1.0  0.7596224214039413  0.7039305629874999  0.6377141081166902  1.0000
  C   C35       1.0  0.7043499162948275  0.776041536752307  0.5562298272515234  1.0000
  N   N3        1.0  0.6338030155001556  0.7857806009021759  0.6077943749290315  1.0000
  C   C36       1.0  0.6149225741054345  0.7266428003770493  0.7384623512146811  1.0000
  C   C37       1.0  0.6684652716560368  0.6536613284661303  0.8235608516292139  1.0000
  H   H25       1.0  0.021149616023264706  0.3223908803332529  0.32633441921730877  1.0000
  H   H26       1.0  0.860191399964308  0.5060458532709056  0.21170703829351756  1.0000
  H   H27       1.0  0.767353398857246  0.6357069132762598  0.06493130115108658  1.0000
  H   H28       1.0  0.8473325420677081  0.47741680646259343  0.6809019384947819  1.0000
  H   H29       1.0  0.07483495720400768  0.2779753901950399  0.7954771382795855  1.0000
  H   H30       1.0  0.8158114292534414  0.6985632218988309  0.5959365072768112  1.0000
  H   H31       1.0  0.7176505770367325  0.8246292969110343  0.4519531199006188  1.0000
  H   H32       1.0  0.5582044920527354  0.736009685423336  0.7762859615580306  1.0000
  H   H33       1.0  0.6523106052883623  0.605859517369957  0.9266525184640417  1.0000
  Zn  Zn1       1.0  0.8252488628495592  0.41519248363297057  0.45139740589960864  1.0000
  Zn  Zn2       1.0  0.9898487080870599  0.41172056855257555  0.46015496165574254  1.0000
  C   C38       1.0  0.9066089421627805  0.40645449011867596  0.7193386316399526  1.0000
  C   C39       1.0  0.908490425632706  0.42046016195132685  0.19221397257981176  1.0000
  C   C40       1.0  0.9075603619760705  0.6507120842046623  0.4499388703009488  1.0000
  C   C41       1.0  0.9075389494352875  0.17620100806102212  0.4616138084389627  1.0000
  O   O1        1.0  0.9707617475090373  0.42050087080957943  0.2493008387431226  1.0000
  O   O2        1.0  0.9692650957611181  0.40377770111191214  0.6688981326195851  1.0000
  O   O3        1.0  0.9700325318748944  0.6010188047490455  0.45135587399146604  1.0000
  O   O4        1.0  0.9699942556148378  0.22325977839879751  0.4668429861812984  1.0000
  O   O5        1.0  0.8451032591519594  0.6036532749730092  0.44470937837793767  1.0000
  O   O6        1.0  0.8443358232524899  0.40641373232645517  0.6622515594897949  1.0000
  O   O7        1.0  0.8458324812526721  0.42313686879676315  0.24265253067738857  1.0000
  O   O8        1.0  0.8450649889690741  0.22589576634589092  0.4601947863093929  1.0000
