data_image0
_chemical_formula_structural       NC12NC2H8C12H16C6NCSNH8Zn2C4O8
_chemical_formula_sum              "N4 C37 H32 S1 Zn2 O8"
_cell_length_a       17.80743265337812
_cell_length_b       10.298977702784466
_cell_length_c       9.275081717742442
_cell_angle_alpha    86.11226293695003
_cell_angle_beta     91.71745222805815
_cell_angle_gamma    89.4320624770977

_space_group_name_H-M_alt    "P 1"
_space_group_IT_number       1

loop_
  _space_group_symop_operation_xyz
  'x, y, z'

loop_
  _atom_site_type_symbol
  _atom_site_label
  _atom_site_symmetry_multiplicity
  _atom_site_fract_x
  _atom_site_fract_y
  _atom_site_fract_z
  _atom_site_occupancy
  N   N1        1.0  0.7048649718356973  0.39287118156408796  0.4473740727084785  1.0000
  C   C1        1.0  0.6539210933990257  0.42174787271109837  0.37112685415696833  1.0000
  C   C2        1.0  0.5905419093964765  0.4576684169059875  0.2762849119677073  1.0000
  C   C3        1.0  0.6020399403169397  0.5104318525397455  0.135752590022294  1.0000
  C   C4        1.0  0.5405724555643675  0.5448725524292459  0.04357005706413175  1.0000
  C   C5        1.0  0.46745144586440035  0.5268067271076475  0.09118744215464458  1.0000
  C   C6        1.0  0.45497748390833104  0.47392914441716893  0.23223931706168055  1.0000
  C   C7        1.0  0.5173022550845081  0.43949153412422026  0.3244035253711157  1.0000
  C   C8        1.0  0.3772934288919394  0.4547776030155324  0.28303123917759776  1.0000
  C   C9        1.0  0.3587340217433513  0.4832331206614442  0.42400715975513736  1.0000
  C   C10       1.0  0.2855831370373543  0.46520927693301894  0.4716695446835164  1.0000
  C   C11       1.0  0.2300502020926766  0.41848397488294187  0.37928601551170193  1.0000
  C   C12       1.0  0.1547652454919818  0.3999212217690298  0.428503241634274  1.0000
  N   N2        1.0  0.09424147192139672  0.38499801601854977  0.4680705056303647  1.0000
  C   C13       1.0  0.24791909619482294  0.38986494264451244  0.23891270277580756  1.0000
  C   C14       1.0  0.3210166665340782  0.4079010218964021  0.19096634688656544  1.0000
  H   H1        1.0  0.6584432699053393  0.5249136407263726  0.09753173150855221  1.0000
  H   H2        1.0  0.5495935065778426  0.5859986146880234  0.9350472298517185  1.0000
  H   H3        1.0  0.4206932870886075  0.5557910222027744  0.01838918376934573  1.0000
  H   H4        1.0  0.5089794253265915  0.39697879357636  0.43278872251379297  1.0000
  H   H5        1.0  0.40052634081883554  0.5210696606562173  0.49676307661175434  1.0000
  H   H6        1.0  0.2723145073709394  0.4880340816334028  0.5804256877703227  1.0000
  H   H7        1.0  0.2054105823552166  0.353299920068169  0.1666146236262045  1.0000
  H   H8        1.0  0.33375751358452704  0.3835435515200887  0.08254734708368128  1.0000
  C   C15       1.0  0.8995715478701639  0.0075305485884638035  0.45786875275020456  1.0000
  C   C16       1.0  0.9015961195342359  0.9970532872848429  0.6097361735290163  1.0000
  C   C17       1.0  0.9027942654398503  0.8745175302817735  0.6865905458509887  1.0000
  C   C18       1.0  0.9015542019035846  0.7617884981996096  0.6093997818630843  1.0000
  C   C19       1.0  0.899542103124801  0.7703285976201776  0.45758859297205223  1.0000
  C   C20       1.0  0.8986190264647265  0.8936582578985596  0.38271983823998346  1.0000
  C   C21       1.0  0.9048148255515446  0.8629942253934906  0.8508100810267496  1.0000
  C   C22       1.0  0.8314677485858699  0.916810540351879  0.9118658799998738  1.0000
  C   C23       1.0  0.842152901801692  0.9636931612011178  0.06553826861863221  1.0000
  C   C24       1.0  0.9048461481631114  0.887598149709662  0.15203605704880463  1.0000
  C   C25       1.0  0.981377731186368  0.903754943407186  0.07962808717444869  1.0000
  C   C26       1.0  0.9747876823006181  0.9284616293680522  0.9137707797513577  1.0000
  H   H9        1.0  0.8954245376433224  0.2346305703775311  0.17118436481908184  1.0000
  H   H10       1.0  0.9019543624791881  0.08431975741825815  0.668583199120955  1.0000
  H   H11       1.0  0.9021807726549917  0.6671554451821  0.6680112946304  1.0000
  H   H12       1.0  0.8970643903391509  0.9009470120015568  0.2656262177923605  1.0000
  H   H13       1.0  0.8985293406486135  0.446138084250374  0.3991392240225333  1.0000
  H   H14       1.0  0.9092700363306331  0.7580260537576772  0.8883078994794611  1.0000
  H   H15       1.0  0.7887386580081778  0.8387301397351267  0.9134705844669744  1.0000
  H   H16       1.0  0.8079382843112016  0.9995262366867421  0.8408393216061179  1.0000
  H   H17       1.0  0.856393806501063  0.06881936318347837  0.058394693369535955  1.0000
  H   H18       1.0  0.7886082847328577  0.953048502112365  0.12353305608924459  1.0000
  H   H19       1.0  0.8899658477717602  0.7827814304189308  0.16153545936879654  1.0000
  H   H20       1.0  0.9090792684060134  0.9213923297234968  0.26324552555056  1.0000
  H   H21       1.0  0.01584262886375587  0.8144162066694218  0.10724181211284733  1.0000
  H   H22       1.0  0.011760540365482353  0.986314821992195  0.12495043090203162  1.0000
  H   H23       1.0  0.9715880000441459  0.035225541970622665  0.8865808594549767  1.0000
  H   H24       1.0  0.026345955932064458  0.8908860379522338  0.8652089232186251  1.0000
  C   C27       1.0  0.8988772169554522  0.38513825810977664  0.034505087118136046  1.0000
  C   C28       1.0  0.8317188931562147  0.4148035151229108  0.10162824914650437  1.0000
  C   C29       1.0  0.767858611659444  0.4562085569414627  0.019880246922100442  1.0000
  C   C30       1.0  0.7698579378496996  0.47043001380772487  0.8687303417516081  1.0000
  C   C31       1.0  0.8356448880197153  0.4367193464603909  0.8004281729192315  1.0000
  C   C32       1.0  0.9002364471662574  0.3927209672645473  0.880952329046619  1.0000
  N   N3        1.0  0.7043586532637839  0.5112264425872206  0.7824487014835539  1.0000
  C   C33       1.0  0.6482554836790579  0.599768182793283  0.8272978931582382  1.0000
  S   S1        1.0  0.5637539472088859  0.5991368973168048  0.7528401458506209  1.0000
  N   N4        1.0  0.6672421886086176  0.6982024373067108  0.9232640267940342  1.0000
  H   H25       1.0  0.003515343521473646  0.26811602238388565  0.3305639513137899  1.0000
  H   H26       1.0  0.828920913359659  0.4083436768044697  0.21840642888224604  1.0000
  H   H27       1.0  0.7167952462283398  0.47679586672739105  0.07494738773284637  1.0000
  H   H28       1.0  0.8358432806181826  0.44303244053552593  0.6833255924066677  1.0000
  H   H29       1.0  0.024176060240091335  0.3806449304484678  0.6080699473563529  1.0000
  H   H30       1.0  0.6974098945690733  0.47508809221584625  0.6803061850441292  1.0000
  H   H31       1.0  0.7228373972529221  0.7120542605036264  0.9570638621665752  1.0000
  H   H32       1.0  0.6260949142457152  0.7620257139607414  0.9557855541322118  1.0000
  Zn  Zn1       1.0  0.8172306355795372  0.39059576288848863  0.4533549260680203  1.0000
  Zn  Zn2       1.0  0.981875824969663  0.3872629455689778  0.46210141178456854  1.0000
  C   C34       1.0  0.8999780389558715  0.38611352584171943  0.7209574591345085  1.0000
  C   C35       1.0  0.8991302196775779  0.39174678625918435  0.19449911508333684  1.0000
  C   C36       1.0  0.899534582820267  0.6260921972889799  0.4518982341398159  1.0000
  C   C37       1.0  0.8995736198148978  0.1517665561912218  0.46355841450397817  1.0000
  O   O1        1.0  0.9616971212389586  0.3926942156088955  0.25151382025951463  1.0000
  O   O2        1.0  0.9623730258828502  0.38263558173335444  0.6705807197220051  1.0000
  O   O3        1.0  0.962014089564371  0.5764214243461394  0.4533134466585289  1.0000
  O   O4        1.0  0.9620560012013044  0.19890838245641307  0.46878098227359843  1.0000
  O   O5        1.0  0.837050403162561  0.578950327139726  0.4466753525866629  1.0000
  O   O6        1.0  0.8374093392939896  0.38516604428631607  0.6639425482318622  1.0000
  O   O7        1.0  0.8367334319193522  0.39522461737821235  0.24487391602648367  1.0000
  O   O8        1.0  0.8370923120524969  0.20143877590410053  0.4621411860976328  1.0000
