data_image0
_chemical_formula_structural       NC12NC2H8C6NO2H5C6NO2H5Zn2C4O8
_chemical_formula_sum              "N4 C30 H18 O12 Zn2"
_cell_length_a       17.80743265337812
_cell_length_b       9.273423624067512
_cell_length_c       9.27342699604674
_cell_angle_alpha    85.08372593905338
_cell_angle_beta     91.97882923782456
_cell_angle_gamma    90.04087344610896

_space_group_name_H-M_alt    "P 1"
_space_group_IT_number       1

loop_
  _space_group_symop_operation_xyz
  'x, y, z'

loop_
  _atom_site_type_symbol
  _atom_site_label
  _atom_site_symmetry_multiplicity
  _atom_site_fract_x
  _atom_site_fract_y
  _atom_site_fract_z
  _atom_site_occupancy
  N   N1        1.0  0.7096921368107627  0.573611505835355  0.4440283372204996  1.0000
  C   C1        1.0  0.6587428142880326  0.6069932364474775  0.36763886810304425  1.0000
  C   C2        1.0  0.5953568681925797  0.6485176568627162  0.27261998323671266  1.0000
  C   C3        1.0  0.6068420452528033  0.7095335696887446  0.13182573371141904  1.0000
  C   C4        1.0  0.5453650883718024  0.7493687468124197  0.03947148332916406  1.0000
  C   C5        1.0  0.4722472825267779  0.7284859318205041  0.08717772358760922  1.0000
  C   C6        1.0  0.45978671842859015  0.6673343108353229  0.22849244927884116  1.0000
  C   C7        1.0  0.5221209368014446  0.6275028802209497  0.32082834297338825  1.0000
  C   C8        1.0  0.3821068090551529  0.6451911029441857  0.27937908409951495  1.0000
  C   C9        1.0  0.3640596212719022  0.6743680327491908  0.42057234879276906  1.0000
  C   C10       1.0  0.29091230576495725  0.6535310676792199  0.468323639909598  1.0000
  C   C11       1.0  0.2348714390900281  0.6032280354147033  0.3758133485783617  1.0000
  C   C12       1.0  0.15959046914545472  0.5817658170792988  0.425122353808961  1.0000
  N   N2        1.0  0.0990699003927614  0.5645116375208956  0.46476340191044807  1.0000
  C   C13       1.0  0.2522285538552616  0.5738591417973677  0.2352237798769532  1.0000
  C   C14       1.0  0.3253219499562221  0.5947145808095256  0.18718804118937915  1.0000
  H   H1        1.0  0.6632426864208194  0.7262743547195172  0.09353356479250552  1.0000
  H   H2        1.0  0.5543785491384258  0.7969096950730354  0.9307461761865183  1.0000
  H   H3        1.0  0.4254926000768368  0.7619278306183144  0.014242860330112128  1.0000
  H   H4        1.0  0.5137968599726643  0.5784242769210381  0.4294165660779614  1.0000
  H   H5        1.0  0.40625832885064067  0.7151370161418003  0.49342751679443664  1.0000
  H   H6        1.0  0.278044183240278  0.6770089184341606  0.5772469665704383  1.0000
  H   H7        1.0  0.20932254917742701  0.5344944088461221  0.16282649753682454  1.0000
  H   H8        1.0  0.3376536939479485  0.5695287758704128  0.07860327073378737  1.0000
  C   C15       1.0  0.9020596650074267  0.14547779663039284  0.4547553855160631  1.0000
  C   C16       1.0  0.8906299026072284  0.23056080149070968  0.3227812784739077  1.0000
  C   C17       1.0  0.8861496488381896  0.16756962835374667  0.19037337850597402  1.0000
  C   C18       1.0  0.8933515963877858  0.016948914663067693  0.19081341375259608  1.0000
  C   C19       1.0  0.9034472530295145  0.9308153154149028  0.3208489039854734  1.0000
  C   C20       1.0  0.9067095523017895  0.9926340646983814  0.4540491697986697  1.0000
  N   N3        1.0  0.8750735942989188  0.25657517073429204  0.05629148208716517  1.0000
  O   O1        1.0  0.8678645074765075  0.4043508664412745  0.05598824938017177  1.0000
  O   O2        1.0  0.871607081310841  0.2011833398571654  0.9381754080964706  1.0000
  H   H9        1.0  0.882965755161752  0.4054213082024902  0.6906120122711186  1.0000
  H   H10       1.0  0.8869729507079992  0.34711316458557984  0.3229719154148978  1.0000
  H   H11       1.0  0.8904157091459518  0.9652865724705465  0.09043137257551503  1.0000
  H   H12       1.0  0.9069216483207857  0.8145298468520985  0.31739909847727743  1.0000
  H   H13       1.0  0.87464205423219  0.859926614171531  0.8020579659819518  1.0000
  C   C21       1.0  0.9026681205471369  0.5721263385290913  0.0304806430212492  1.0000
  C   C22       1.0  0.9468451411755493  0.6742101952931792  0.09844979959892064  1.0000
  C   C23       1.0  0.9959083519964689  0.7667118313526506  0.019443209395068273  1.0000
  C   C24       1.0  0.000621882590787548  0.7562025962949022  0.8700635884343235  1.0000
  C   C25       1.0  0.9563024567076137  0.6572736580942036  0.8005997509424834  1.0000
  C   C26       1.0  0.9061010767824916  0.5659854162259488  0.8783239792691226  1.0000
  N   N4        1.0  0.04115477245284738  0.8696647840649592  0.09115027472796444  1.0000
  O   O3        1.0  0.036382517978710505  0.8800950105453391  0.23769949686792669  1.0000
  O   O4        1.0  0.08528192647371968  0.9514293217226233  0.021559345226067173  1.0000
  H   H14       1.0  0.7969016013375368  0.4457854911956156  0.3144773554614577  1.0000
  H   H15       1.0  0.944288762872196  0.6792770736137219  0.21441965296526933  1.0000
  H   H16       1.0  0.03813062365781539  0.8256765807624491  0.8063357514986422  1.0000
  H   H17       1.0  0.9600174699983952  0.654586255691874  0.6844905921990776  1.0000
  H   H18       1.0  0.7473992026440581  0.38509598452798866  0.7804639904653441  1.0000
  Zn  Zn1       1.0  0.8220581642563164  0.5709815690473345  0.4500203545144099  1.0000
  Zn  Zn2       1.0  0.9867038535492573  0.5671297229460708  0.4587831694370137  1.0000
  C   C27       1.0  0.9054189734174025  0.56139990141612  0.7180680925509513  1.0000
  C   C28       1.0  0.903344852877355  0.5767131674917432  0.19073566726197844  1.0000
  C   C29       1.0  0.9058034653008451  0.8325452138343477  0.4484298539880016  1.0000
  C   C30       1.0  0.9029602956112635  0.305566122813816  0.4603739812436587  1.0000
  O   O5        1.0  0.9660541169172697  0.5767845007740502  0.24784416518607122  1.0000
  O   O6        1.0  0.9676719702535042  0.5584040209078804  0.6676099537431259  1.0000
  O   O7        1.0  0.967981616100137  0.7773572986192332  0.44987512228878646  1.0000
  O   O8        1.0  0.965744414506583  0.35783123547962425  0.4655788854020264  1.0000
  O   O9        1.0  0.8430175471134751  0.7802800578298521  0.4432246355514837  1.0000
  O   O10       1.0  0.8427079104639756  0.5613285136942701  0.6609593885891796  1.0000
  O   O11       1.0  0.8410900498741659  0.5797089558647659  0.24119186445661578  1.0000
  O   O12       1.0  0.8407803478420176  0.3607556794694844  0.45892669291304267  1.0000
