data_image0
_chemical_formula_structural       NC12NC2H8C9H10C7F3H5Zn2C4O8
_chemical_formula_sum              "N2 C34 H23 F3 Zn2 O8"
_cell_length_a       17.80743265337812
_cell_length_b       10.297183801781406
_cell_length_c       10.299327507215196
_cell_angle_alpha    85.5260792970818
_cell_angle_beta     91.5153373633688
_cell_angle_gamma    89.4353606467078

_space_group_name_H-M_alt    "P 1"
_space_group_IT_number       1

loop_
  _space_group_symop_operation_xyz
  'x, y, z'

loop_
  _atom_site_type_symbol
  _atom_site_label
  _atom_site_symmetry_multiplicity
  _atom_site_fract_x
  _atom_site_fract_y
  _atom_site_fract_z
  _atom_site_occupancy
  N   N1        1.0  0.7076658983347449  0.4072274544000487  0.6006941055759143  1.0000
  C   C1        1.0  0.6568583387455801  0.4368018740102708  0.5319816340013093  1.0000
  C   C2        1.0  0.5936487182791153  0.4735903048766239  0.4465119683920338  1.0000
  C   C3        1.0  0.6053979860769788  0.5276396489259181  0.31986710771697346  1.0000
  C   C4        1.0  0.544095295510489  0.5629238124301419  0.23679411346083645  1.0000
  C   C5        1.0  0.4708891519126913  0.544422240667422  0.2797059549133354  1.0000
  C   C6        1.0  0.4581630267670743  0.4902540104322255  0.4068190150153468  1.0000
  C   C7        1.0  0.5203230363990731  0.45497310350114173  0.4898754959919196  1.0000
  C   C8        1.0  0.38038816587514  0.47063769430088365  0.4525916698882968  1.0000
  C   C9        1.0  0.3615792627291087  0.49781824976775924  0.5796251294404322  1.0000
  C   C10       1.0  0.28834316550987543  0.4793582586929517  0.6225775157527  1.0000
  C   C11       1.0  0.2329728546430523  0.4334632807005383  0.5393345312114568  1.0000
  C   C12       1.0  0.15759990725612952  0.4144501612978986  0.5836881025246123  1.0000
  N   N2        1.0  0.09700539514566732  0.39916489202799266  0.6193453226439232  1.0000
  C   C13       1.0  0.2510901693828403  0.4061137081848667  0.41284412094345857  1.0000
  C   C14       1.0  0.3242734569662745  0.4245885157919651  0.3696358387421763  1.0000
  H   H1        1.0  0.6618696491623725  0.5424711924784484  0.2854232319504313  1.0000
  H   H2        1.0  0.5533103702310396  0.6050429578424064  0.13899550399565763  1.0000
  H   H3        1.0  0.42426118976803984  0.574072963904324  0.2141014234805385  1.0000
  H   H4        1.0  0.5118063841996002  0.4114682739586577  0.587550273336946  1.0000
  H   H5        1.0  0.4032435408301836  0.535001066078409  0.6451823403221828  1.0000
  H   H6        1.0  0.27488208885253906  0.5011996522959627  0.7205776009532687  1.0000
  H   H7        1.0  0.20870892295803814  0.3701984860814391  0.34769930607567656  1.0000
  H   H8        1.0  0.337206104501028  0.401211112317823  0.2719397730529711  1.0000
  C   C15       1.0  0.902341837651939  0.02172047239121233  0.6102040114452281  1.0000
  C   C16       1.0  0.9001775388058443  0.03164418113746925  0.47343500023184726  1.0000
  C   C17       1.0  0.8990685314453418  0.9201119035342787  0.40336422791369575  1.0000
  C   C18       1.0  0.9001688376612961  0.7964733417710517  0.4729048888192895  1.0000
  C   C19       1.0  0.902336657586332  0.7846617556073038  0.6098469303818095  1.0000
  C   C20       1.0  0.903408293325203  0.8977618806566635  0.6776025311787008  1.0000
  C   C21       1.0  0.8967274815602626  0.9402772943846422  0.2554388748625185  1.0000
  C   C22       1.0  0.8527512088798603  0.8424810527867985  0.1810354482466363  1.0000
  C   C23       1.0  0.9383405265292492  0.8410174320474944  0.1810098491477885  1.0000
  H   H9        1.0  0.9031829449132542  0.34543485537315033  0.6629058400824528  1.0000
  H   H10       1.0  0.8993421578031567  0.1268976422953152  0.4206346236992491  1.0000
  H   H11       1.0  0.8993548324300448  0.708897589391416  0.42157068121600627  1.0000
  H   H12       1.0  0.9050777187883755  0.8893780959002483  0.7831226773427693  1.0000
  H   H13       1.0  0.9064210794094838  0.5551367519433719  0.8684914090666831  1.0000
  H   H14       1.0  0.895975716691447  0.04101499913486717  0.207893098987455  1.0000
  H   H15       1.0  0.8276709830774444  0.759354734671968  0.2389374490234646  1.0000
  H   H16       1.0  0.8262644265343858  0.8839152301222565  0.08787941575576874  1.0000
  H   H17       1.0  0.96525121490756  0.7570028425528538  0.23889697782391162  1.0000
  H   H18       1.0  0.961876933955765  0.8815938203053437  0.08783765682705247  1.0000
  C   C24       1.0  0.902411183548308  0.4032423868280499  0.22864732415789057  1.0000
  C   C25       1.0  0.9754168524435779  0.45381773902004574  0.22684980420567058  1.0000
  C   C26       1.0  0.011696741267245736  0.48154728297908034  0.10861946668217382  1.0000
  C   C27       1.0  0.9752279439945168  0.45368389698484246  0.9916033613766824  1.0000
  C   C28       1.0  0.9022673225977187  0.40313985873406155  0.991403658187592  1.0000
  C   C29       1.0  0.8661704882421197  0.37869612406447084  0.11041379311814148  1.0000
  C   C30       1.0  0.09109968972850724  0.5314163586610943  0.10813681180734225  1.0000
  F   F1        1.0  0.1042219320621307  0.6070043688780831  0.21162111389208182  1.0000
  F   F2        1.0  0.140724051038575  0.4268155794570192  0.1184314459216671  1.0000
  F   F3        1.0  0.10401554674188529  0.6069910177015443  0.9939678316494298  1.0000
  H   H19       1.0  0.7651505798438831  0.3056183381954214  0.4394709792652891  1.0000
  H   H20       1.0  0.004227167787099084  0.4714921050620384  0.31761793813516226  1.0000
  H   H21       1.0  0.003908684465095735  0.4712629624998339  0.9005887709797347  1.0000
  H   H22       1.0  0.8099009320297866  0.33971809394421104  0.11099426078997232  1.0000
  H   H23       1.0  0.874707833353983  0.38156573558985896  0.6640622574882147  1.0000
  Zn  Zn1       1.0  0.8200208688682818  0.40489730380346134  0.6060839326702907  1.0000
  Zn  Zn2       1.0  0.9846504201920355  0.4014844447768302  0.6139660938164864  1.0000
  C   C31       1.0  0.9022928540391975  0.3979841298469138  0.8472287080691248  1.0000
  C   C32       1.0  0.9023802327354987  0.40839922052604116  0.37282153119306205  1.0000
  C   C33       1.0  0.9023347354261986  0.6404503856529333  0.6047389650270587  1.0000
  C   C34       1.0  0.9023382951695006  0.16593140513608695  0.6153113415162295  1.0000
  O   O1        1.0  0.964845902151804  0.4088290714821512  0.42419895385076245  1.0000
  O   O2        1.0  0.9647772048862983  0.3949630179113801  0.8018332899441318  1.0000
  O   O3        1.0  0.964810182174096  0.5907576031569115  0.6060210658264418  1.0000
  O   O4        1.0  0.964812868705398  0.21303449670711094  0.6200110778974273  1.0000
  O   O5        1.0  0.8398583641749345  0.5933472530392367  0.6000389458927229  1.0000
  O   O6        1.0  0.8398253868861486  0.3975542285436968  0.7958511000326851  1.0000
  O   O7        1.0  0.8398940844964751  0.41142023705473196  0.4182152025243573  1.0000
  O   O8        1.0  0.8398610510286921  0.21562565297525693  0.6140274239454206  1.0000
