data_image0
_chemical_formula_structural       NC12NC2H8C7F3H5C6OCH8Zn2C4O8
_chemical_formula_sum              "N2 C32 H21 F3 O9 Zn2"
_cell_length_a       17.80743265337812
_cell_length_b       10.29932413504667
_cell_length_c       9.273891588657152
_cell_angle_alpha    86.08272679229019
_cell_angle_beta     91.22048166911064
_cell_angle_gamma    89.4159334836852

_space_group_name_H-M_alt    "P 1"
_space_group_IT_number       1

loop_
  _space_group_symop_operation_xyz
  'x, y, z'

loop_
  _atom_site_type_symbol
  _atom_site_label
  _atom_site_symmetry_multiplicity
  _atom_site_fract_x
  _atom_site_fract_y
  _atom_site_fract_z
  _atom_site_occupancy
  N   N1        1.0  0.7116537590054375  0.39398461963134834  0.4481036106470897  1.0000
  C   C1        1.0  0.6610494843188214  0.42291839201940795  0.3718730901157299  1.0000
  C   C2        1.0  0.5980927243856579  0.4589099379972803  0.2770519189240299  1.0000
  C   C3        1.0  0.6102167560411909  0.5117786087994491  0.13655015090739986  1.0000
  C   C4        1.0  0.5491599247331097  0.5462883482715255  0.044387577792432964  1.0000
  C   C5        1.0  0.475826833075627  0.5281868769102405  0.09199451928657143  1.0000
  C   C6        1.0  0.4627245433109951  0.47520366507571654  0.23301576646834032  1.0000
  C   C7        1.0  0.5246387432658995  0.4406970291526271  0.3251600170842188  1.0000
  C   C8        1.0  0.3848142486743958  0.4560140939856774  0.28379660617891744  1.0000
  C   C9        1.0  0.3656140651169633  0.48435909857166326  0.42478126354255874  1.0000
  C   C10       1.0  0.29225088874212946  0.46629957152832  0.4724332235848676  1.0000
  C   C11       1.0  0.23714227959103612  0.419648396530762  0.3800303805038452  1.0000
  C   C12       1.0  0.1616380982313045  0.4010487930601079  0.42923686540488104  1.0000
  N   N2        1.0  0.10093808304020671  0.38609596215963515  0.46879549418362987  1.0000
  C   C13       1.0  0.2556492559207356  0.3911394222874687  0.23964823032752514  1.0000
  C   C14       1.0  0.3289603977202115  0.4092114032364842  0.1917123153869129  1.0000
  H   H1        1.0  0.666790319611114  0.5262890100088617  0.09833766590106463  1.0000
  H   H2        1.0  0.5586643304226623  0.5874956528130058  0.9358885293967543  1.0000
  H   H3        1.0  0.4293926940901331  0.557225585322727  0.019212887829036962  1.0000
  H   H4        1.0  0.5158333981171477  0.3981032367910553  0.43352076923120886  1.0000
  H   H5        1.0  0.40707204646270995  0.52213719729084  0.49755289345655607  1.0000
  H   H6        1.0  0.27848779363390147  0.48903906768206884  0.5811965290520582  1.0000
  H   H7        1.0  0.2134728133656536  0.3546324104282117  0.16733503713132492  1.0000
  H   H8        1.0  0.3421944295465901  0.38493907438918007  0.08328539941798163  1.0000
  C   C15       1.0  0.9063735701419866  0.008659305192334266  0.45841142725090167  1.0000
  C   C16       1.0  0.9814745624653972  0.008824821250941195  0.4148388251505182  1.0000
  C   C17       1.0  0.018911520674194993  0.8919468410840802  0.39031841501757003  1.0000
  C   C18       1.0  0.9812801165565854  0.7735728345721832  0.4149548728547059  1.0000
  C   C19       1.0  0.9062254410621785  0.7714112200824739  0.4585004772147816  1.0000
  C   C20       1.0  0.8691177388654944  0.8895324712444805  0.47942309570067887  1.0000
  C   C21       1.0  0.10036425370044544  0.8928534139439691  0.3486017639191368  1.0000
  F   F1        1.0  0.11682895951685146  0.006341821762306354  0.2673344905493251  1.0000
  F   F2        1.0  0.14521439249003443  0.8843117340772745  0.4724627861094277  1.0000
  F   F3        1.0  0.11662238969639827  0.7887016651726356  0.26731454424172907  1.0000
  H   H9        1.0  0.765060341674387  0.21542419735659157  0.5431338703674358  1.0000
  H   H10       1.0  0.011009880956198481  0.10003615256769449  0.40016619588374436  1.0000
  H   H11       1.0  0.01068187513420682  0.6829970263842038  0.4003657762900865  1.0000
  H   H12       1.0  0.8112332791481867  0.8886004265997243  0.5130033935628311  1.0000
  H   H13       1.0  0.8777642304823858  0.4429684780016185  0.47769001422238166  1.0000
  C   C22       1.0  0.9075307230135045  0.3865707558049376  0.035245626893275483  1.0000
  C   C23       1.0  0.9690348594693018  0.4401794686381939  0.10709546159958849  1.0000
  C   C24       1.0  0.02627634606966689  0.5035723995304813  0.030336507641490318  1.0000
  C   C25       1.0  0.022218366963740577  0.5136778981512868  0.8786814724581005  1.0000
  C   C26       1.0  0.9622924915025286  0.45925082695437736  0.8055732301306806  1.0000
  C   C27       1.0  0.9050682577040711  0.39349976550326615  0.8816662529095778  1.0000
  O   O1        1.0  0.08572941446627835  0.5556236517638584  0.10871002532259566  1.0000
  C   C28       1.0  0.14757206945484547  0.6227196821875465  0.04492949686210479  1.0000
  H   H14       1.0  0.7288774190863792  0.3104243150995165  0.13675667032781358  1.0000
  H   H15       1.0  0.9718943632618896  0.4355937206439182  0.2241808308171127  1.0000
  H   H16       1.0  0.06547934216204032  0.562394081091401  0.8160651133887855  1.0000
  H   H17       1.0  0.9616850965097509  0.4659565712180589  0.6884606193079859  1.0000
  H   H18       1.0  0.7859313114899746  0.3370620089895928  0.59988357320392  1.0000
  H   H19       1.0  0.1273916639840278  0.711014297051551  0.9794724258895982  1.0000
  H   H20       1.0  0.17890472650604994  0.5576293292817114  0.9761740811419379  1.0000
  H   H21       1.0  0.18601711183797143  0.652983448014393  0.13182047747464942  1.0000
  Zn  Zn1       1.0  0.8239927857586988  0.3917047241143876  0.45408314921338166  1.0000
  Zn  Zn2       1.0  0.9885990216516042  0.38836536011462686  0.4628277096348359  1.0000
  C   C29       1.0  0.9055330580099791  0.38701626437268954  0.7216739565289876  1.0000
  C   C30       1.0  0.9070605461655195  0.3930554232199204  0.19523713945214083  1.0000
  C   C31       1.0  0.906266270836487  0.6271879717013142  0.45274047967310493  1.0000
  C   C32       1.0  0.9063272772499297  0.15288215730787846  0.4641706899770084  1.0000
  O   O2        1.0  0.9693699602894097  0.393958799687367  0.2522502670532132  1.0000
  O   O3        1.0  0.9681559695969958  0.3835774047473872  0.6712973329759784  1.0000
  O   O4        1.0  0.9687472017796759  0.577519125151942  0.45413160308772316  1.0000
  O   O5        1.0  0.9687786722503346  0.20001708882823088  0.46941588590062056  1.0000
  O   O6        1.0  0.8438130789879602  0.5800529965416963  0.44749496995592786  1.0000
  O   O7        1.0  0.8432218467223539  0.38611283586147116  0.6646606231835288  1.0000
  O   O8        1.0  0.8444358425143946  0.39649417135856857  0.2456118245503378  1.0000
  O   O9        1.0  0.8438445541597066  0.20255245209492645  0.4627775514469239  1.0000
