data_image0
_chemical_formula_structural       NC12NC2H8C7F3H5C12H10Zn2C4O8
_chemical_formula_sum              "N2 C37 H23 F3 Zn2 O8"
_cell_length_a       17.80743265337812
_cell_length_b       10.29932413504667
_cell_length_c       10.299141136925906
_cell_angle_alpha    85.55064914846619
_cell_angle_beta     91.556080336852
_cell_angle_gamma    89.4159334836852

_space_group_name_H-M_alt    "P 1"
_space_group_IT_number       1

loop_
  _space_group_symop_operation_xyz
  'x, y, z'

loop_
  _atom_site_type_symbol
  _atom_site_label
  _atom_site_symmetry_multiplicity
  _atom_site_fract_x
  _atom_site_fract_y
  _atom_site_fract_z
  _atom_site_occupancy
  N   N1        1.0  0.7068256928417949  0.4071018404924014  0.6014312218364746  1.0000
  C   C1        1.0  0.6559842592834014  0.4366799423479588  0.5327322889117272  1.0000
  C   C2        1.0  0.5927325035687099  0.4734729530713888  0.4472794645818079  1.0000
  C   C3        1.0  0.6044194236768826  0.5275291984662216  0.32065929369091006  1.0000
  C   C4        1.0  0.5430758676854632  0.562817931197749  0.23760239752302104  1.0000
  C   C5        1.0  0.4698908847966842  0.5443140677886555  0.2805057655921497  1.0000
  C   C6        1.0  0.4572273227180911  0.4901388905252053  0.4075940910236826  1.0000
  C   C7        1.0  0.5194281903536637  0.4548534162114233  0.4906344749583196  1.0000
  C   C8        1.0  0.3794750110858019  0.4705201003877071  0.4533577756584233  1.0000
  C   C9        1.0  0.3607134413807374  0.4976734488158805  0.5804131263517045  1.0000
  C   C10       1.0  0.28749851383068986  0.47921114921077024  0.6233570651292524  1.0000
  C   C11       1.0  0.2321024324983578  0.4333409983261609  0.5400836377063385  1.0000
  C   C12       1.0  0.1567513362069415  0.41432548285605186  0.5844285140382302  1.0000
  N   N2        1.0  0.096174390879526  0.3990382873200202  0.6200787439739979  1.0000
  C   C13       1.0  0.2501726694207775  0.40601858761987075  0.41357126639401853  1.0000
  C   C14       1.0  0.32333467899046286  0.42449574122587963  0.3703714275074823  1.0000
  H   H1        1.0  0.6608741053374506  0.5423625861900156  0.28622220830778944  1.0000
  H   H2        1.0  0.552242724690748  0.6049423111256949  0.13982307244196868  1.0000
  H   H3        1.0  0.4232303166922196  0.5739679543412588  0.2149149709497602  1.0000
  H   H4        1.0  0.5109599636391687  0.4113437173960879  0.5882891674821467  1.0000
  H   H5        1.0  0.402397820729902  0.5348364539318053  0.6459949076046558  1.0000
  H   H6        1.0  0.2740737895303165  0.5010313363763808  0.7213745386409349  1.0000
  H   H7        1.0  0.20777125509332012  0.37012279448167673  0.3484026282379089  1.0000
  H   H8        1.0  0.3362313865419676  0.40113987807422724  0.27265710815789146  1.0000
  C   C15       1.0  0.9015775723695766  0.021689400451500918  0.6107206245131171  1.0000
  C   C16       1.0  0.9765430070569838  0.022223208780882242  0.5714530024611397  1.0000
  C   C17       1.0  0.013903680429181442  0.9055524844833721  0.5493552127665551  1.0000
  C   C18       1.0  0.9763489221812911  0.7869702412226169  0.5715575846336145  1.0000
  C   C19       1.0  0.9014297203308906  0.7844405626573431  0.6108008763263397  1.0000
  C   C20       1.0  0.8643871099709165  0.9023849678587855  0.6296563367633632  1.0000
  C   C21       1.0  0.095226629822317  0.9068116624074881  0.5117601734610397  1.0000
  F   F1        1.0  0.11143850705077085  0.020986972251554104  0.4385221196829199  1.0000
  F   F2        1.0  0.14046210954982818  0.897223061885979  0.6233837068716634  1.0000
  F   F3        1.0  0.11123187517585742  0.8033469842556914  0.43850414407370075  1.0000
  H   H9        1.0  0.7605279217823808  0.2277381861760035  0.6870724767150069  1.0000
  H   H10       1.0  0.006032677896704142  0.11355855876281518  0.5582300313099311  1.0000
  H   H11       1.0  0.005705292984338195  0.6965177456495221  0.5584098931402433  1.0000
  H   H12       1.0  0.8066071210810337  0.9011690897141513  0.6599188958321549  1.0000
  H   H13       1.0  0.8730282098412315  0.45583562328234023  0.628094484011988  1.0000
  C   C22       1.0  0.9014182246703512  0.40317760999093566  0.22936367283316117  1.0000
  C   C23       1.0  0.9798888923022525  0.41553938030505044  0.23130830057302387  1.0000
  C   C24       1.0  0.019764591909201767  0.4216915903933376  0.11516478585701195  1.0000
  C   C25       1.0  0.9801089397412086  0.41531520651438103  0.9960531097910676  1.0000
  C   C26       1.0  0.9015890768819629  0.40295239132409977  0.9921578585829747  1.0000
  C   C27       1.0  0.8627272004840997  0.3969575754287118  0.10928218305658732  1.0000
  C   C28       1.0  0.10277866256231838  0.4347707356209167  0.1182667701392377  1.0000
  C   C29       1.0  0.14750329276080154  0.36282657339835955  0.03817729798220193  1.0000
  C   C30       1.0  0.22563433514096154  0.3752990024646017  0.041334705538889294  1.0000
  C   C31       1.0  0.2599433537270377  0.45952867874355374  0.12414572476558572  1.0000
  C   C32       1.0  0.2161907239389227  0.5314613253055307  0.20403707010902106  1.0000
  C   C33       1.0  0.13803993164338424  0.5193149178873318  0.2013485703377209  1.0000
  H   H14       1.0  0.8712293201961276  0.3984886598388413  0.5560860872064977  1.0000
  H   H15       1.0  0.010288214696160702  0.41861721133266316  0.3235170600446835  1.0000
  H   H16       1.0  0.01044940824630003  0.42179847021710404  0.9060812179847137  1.0000
  H   H17       1.0  0.8022007815300896  0.38742627197263957  0.10706632380382675  1.0000
  H   H18       1.0  0.7533379610434167  0.3804431110582214  0.7774482270575556  1.0000
  H   H19       1.0  0.12215563053296896  0.29575218837741213  0.9744441888162614  1.0000
  H   H20       1.0  0.25961791468075623  0.31933363650122293  0.9797273739225796  1.0000
  H   H21       1.0  0.32042955701617326  0.4690568275776741  0.12640845031732395  1.0000
  H   H22       1.0  0.2428289643260726  0.5969760680337455  0.26791202570919337  1.0000
  H   H23       1.0  0.10513934646984202  0.5772130581711907  0.2629038697065289  1.0000
  Zn  Zn1       1.0  0.8191833223884025  0.4047714036322434  0.6068199810371631  1.0000
  Zn  Zn2       1.0  0.9838167632652078  0.4013581272687652  0.6147005774920011  1.0000
  C   C34       1.0  0.9015560897285084  0.39782116420987323  0.8479727738413436  1.0000
  C   C35       1.0  0.901445793428036  0.4083099680503923  0.37354799839196184  1.0000
  C   C36       1.0  0.9014526303204606  0.6402659999748113  0.6056099674619622  1.0000
  C   C37       1.0  0.9015491969761916  0.16586357307935895  0.6159108711618206  1.0000
  O   O1        1.0  0.9639325796717033  0.40873144779338433  0.4249282198779851  1.0000
  O   O2        1.0  0.9640222758580244  0.39480810704271985  0.8025733687432279  1.0000
  O   O3        1.0  0.9639378891530201  0.59058539511915  0.6068636476609786  1.0000
  O   O4        1.0  0.9640169101748567  0.21295417020093232  0.6206378408902398  1.0000
  O   O5        1.0  0.8389831192974387  0.5931753618662756  0.6008827149428322  1.0000
  O   O6        1.0  0.8390675056810198  0.3973996341621402  0.7965923669385118  1.0000
  O   O7        1.0  0.8389778092037334  0.41132293011545196  0.4189456565549101  1.0000
  O   O8        1.0  0.8390621397274224  0.21554564320522163  0.6146553749410677  1.0000
