data_image0
_chemical_formula_structural       NC12NC2H8C7F3H5C9H10Zn2C4O8
_chemical_formula_sum              "N2 C34 H23 F3 Zn2 O8"
_cell_length_a       17.80743265337812
_cell_length_b       10.29932413504667
_cell_length_c       10.297187173949778
_cell_angle_alpha    85.5742648437955
_cell_angle_beta     91.50840816747596
_cell_angle_gamma    89.4159334836852

_space_group_name_H-M_alt    "P 1"
_space_group_IT_number       1

loop_
  _space_group_symop_operation_xyz
  'x, y, z'

loop_
  _atom_site_type_symbol
  _atom_site_label
  _atom_site_symmetry_multiplicity
  _atom_site_fract_x
  _atom_site_fract_y
  _atom_site_fract_z
  _atom_site_occupancy
  N   N1        1.0  0.7075031376184095  0.4065092334578584  0.6012430209658501  1.0000
  C   C1        1.0  0.6566949807454359  0.4360582259327739  0.5325348434482096  1.0000
  C   C2        1.0  0.5934846170383403  0.47281502825114763  0.4470705200084948  1.0000
  C   C3        1.0  0.6052328699709858  0.5268176216517728  0.32043331025131305  1.0000
  C   C4        1.0  0.543929545437146  0.562071161190298  0.23736523738592186  1.0000
  C   C5        1.0  0.47072378082990485  0.5435854769641812  0.28027437882233075  1.0000
  C   C6        1.0  0.45799865916012367  0.4894641500632122  0.4073798061181877  1.0000
  C   C7        1.0  0.5201593033363832  0.45421386194580404  0.4904313645283298  1.0000
  C   C8        1.0  0.38022418031689814  0.46986475109321635  0.453149649023745  1.0000
  C   C9        1.0  0.36140106699309144  0.4970719359116862  0.5802220971440468  1.0000
  C   C10       1.0  0.288165338072767  0.47862783268033127  0.623171814748344  1.0000
  C   C11       1.0  0.2328095930823576  0.43272239685324965  0.5398871814900179  1.0000
  C   C12       1.0  0.15743701682849  0.4137256713676376  0.5842380251682879  1.0000
  N   N2        1.0  0.0968428030889433  0.3984535816865149  0.6198930524400301  1.0000
  C   C13       1.0  0.2509411106128252  0.405346379830011  0.41335778581765337  1.0000
  C   C14       1.0  0.3241240455067858  0.4238052286312688  0.3701521336687197  1.0000
  H   H1        1.0  0.6617042324154945  0.5416364175590136  0.28599159078115144  1.0000
  H   H2        1.0  0.5531437652136229  0.6041541096800616  0.1395727544577927  1.0000
  H   H3        1.0  0.4240949838774338  0.5732115711286565  0.21467475783914947  1.0000
  H   H4        1.0  0.5116437742207515  0.41074554175885547  0.5880991981278341  1.0000
  H   H5        1.0  0.4030536795562069  0.5342627295965503  0.6458127035248871  1.0000
  H   H6        1.0  0.2746931356458372  0.5004895521933086  0.7212024781539663  1.0000
  H   H7        1.0  0.20857126295138192  0.36942297318148687  0.3481803781289836  1.0000
  H   H8        1.0  0.3370680843417265  0.40040796158591685  0.2724246652196627  1.0000
  C   C15       1.0  0.9022505175052586  0.02110072955900466  0.6105336736873233  1.0000
  C   C16       1.0  0.9772349728127918  0.02161789925793678  0.5712607675186316  1.0000
  C   C17       1.0  0.014606350007666968  0.90493781159852  0.5491600041960605  1.0000
  C   C18       1.0  0.9770408372791352  0.7863649760136385  0.5713653637643901  1.0000
  C   C19       1.0  0.9021026265938534  0.7838519257694588  0.6106139362997727  1.0000
  C   C20       1.0  0.8650508829446317  0.9018043204803695  0.6294719340550352  1.0000
  C   C21       1.0  0.09594750984808376  0.9061810596054922  0.511559905847873  1.0000
  F   F1        1.0  0.11219486244089283  0.020325336734869248  0.4383119966620683  1.0000
  F   F2        1.0  0.1411289208870632  0.8966397566442833  0.623198460075848  1.0000
  F   F3        1.0  0.11198823927308221  0.802685341122311  0.43829401863393014  1.0000
  H   H9        1.0  0.7611638832785976  0.22718186738904622  0.6868958003106667  1.0000
  H   H10       1.0  0.0067310486523075586  0.11294764635079879  0.5580360169950229  1.0000
  H   H11       1.0  0.006403576617692641  0.6959069094492641  0.558215903028759  1.0000
  H   H12       1.0  0.8072562353458685  0.900601265305665  0.6597385654583832  1.0000
  H   H13       1.0  0.8736927393519185  0.4552543141095654  0.6279098711301945  1.0000
  C   C22       1.0  0.9022758931310315  0.40242734903882527  0.2291254040375652  1.0000
  C   C23       1.0  0.8261349955409643  0.4396746209432154  0.22200030898798584  1.0000
  C   C24       1.0  0.7871257695593236  0.4587572783737086  0.1017335089930369  1.0000
  C   C25       1.0  0.8258398361021756  0.4398185114794966  0.9867634610769676  1.0000
  C   C26       1.0  0.902077244619294  0.4025253749626916  0.9920222089033839  1.0000
  C   C27       1.0  0.9397974149237502  0.384072052142193  0.1135683334380333  1.0000
  C   C28       1.0  0.7047739010410696  0.49904260028882397  0.1034593772196506  1.0000
  C   C29       1.0  0.6521885286782453  0.44789372020706364  0.0006626274805141552  1.0000
  C   C30       1.0  0.6745004755213019  0.5907106524758414  0.9906483126909644  1.0000
  H   H14       1.0  0.9316174429846102  0.3880865247829808  0.5594084402134376  1.0000
  H   H15       1.0  0.7967404893008643  0.4540544356688778  0.31067199239092624  1.0000
  H   H16       1.0  0.7972609914147473  0.45379597200595634  0.8927889217040326  1.0000
  H   H17       1.0  0.9985415694323005  0.35533435644171285  0.11833813956225536  1.0000
  H   H18       1.0  0.046065396098965206  0.3320725814452772  0.7947392159659499  1.0000
  H   H19       1.0  0.6783047782573777  0.5119920787699566  0.19827016663755082  1.0000
  H   H20       1.0  0.6776420501935015  0.3887486874824284  0.9273501967232334  1.0000
  H   H21       1.0  0.5938029523409364  0.4315289487519305  0.03298243187924177  1.0000
  H   H22       1.0  0.7135076532024751  0.61831892675089  0.9112536793149402  1.0000
  H   H23       1.0  0.6291545795414631  0.6578164948314507  0.01711274187511047  1.0000
  Zn  Zn1       1.0  0.8198581569345946  0.4041810799438319  0.6066325053144106  1.0000
  Zn  Zn2       1.0  0.9844877805741011  0.400771142777516  0.6145141622355892  1.0000
  C   C31       1.0  0.9021141136448608  0.3973330227263323  0.8478177492688443  1.0000
  C   C32       1.0  0.9022336212632538  0.40762080144482504  0.37332913201405393  1.0000
  C   C33       1.0  0.9021280509782471  0.6396751635747138  0.6054223289116021  1.0000
  C   C34       1.0  0.9022196280378173  0.1652771014184793  0.6157246187707077  1.0000
  O   O1        1.0  0.9646955197336416  0.4080640522162886  0.42471626757006686  1.0000
  O   O2        1.0  0.9646022905340201  0.3943007287456268  0.8024122349198295  1.0000
  O   O3        1.0  0.9646127025477845  0.5899950899333315  0.6066761778143026  1.0000
  O   O4        1.0  0.9646850515664983  0.2123697014701602  0.6204522245921331  1.0000
  O   O5        1.0  0.839660829762188  0.5925825224162451  0.6006944402614118  1.0000
  O   O6        1.0  0.839650417460465  0.3968897215715619  0.7964304282710724  1.0000
  O   O7        1.0  0.839743647125496  0.4106529995832182  0.4187328991928225  1.0000
  O   O8        1.0  0.8397331789317223  0.21495863956057115  0.6144689536018948  1.0000
