data_image0
_chemical_formula_structural       NC8NC6H8C7OH6C7OH5Zn2C4O8
_chemical_formula_sum              "N2 C32 H19 O10 Zn2"
_cell_length_a       17.457602349358154
_cell_length_b       9.274078303013077
_cell_length_c       9.274081674992354
_cell_angle_alpha    86.2431896807078
_cell_angle_beta     92.53340075860572
_cell_angle_gamma    91.09880916489897

_space_group_name_H-M_alt    "P 1"
_space_group_IT_number       1

loop_
  _space_group_symop_operation_xyz
  'x, y, z'

loop_
  _atom_site_type_symbol
  _atom_site_label
  _atom_site_symmetry_multiplicity
  _atom_site_fract_x
  _atom_site_fract_y
  _atom_site_fract_z
  _atom_site_occupancy
  N   N1        1.0  0.7184371810704379  0.5994341025440005  0.48014303823421  1.0000
  C   C1        1.0  0.6576715473890073  0.5483483960635103  0.46823258896349557  1.0000
  C   C2        1.0  0.5820764488609524  0.4848042137658414  0.4534265940617688  1.0000
  C   C3        1.0  0.5230485529278922  0.530118039768523  0.5366470490717634  1.0000
  C   C4        1.0  0.448876702451387  0.4689313590772602  0.5225288865659514  1.0000
  C   C5        1.0  0.3862292024702369  0.5167784091681931  0.6106621387628015  1.0000
  C   C6        1.0  0.3117638713399234  0.5367373268075091  0.5488404403189151  1.0000
  C   C7        1.0  0.2527367046518605  0.5818480257304979  0.6321801533354796  1.0000
  C   C8        1.0  0.1768372172823132  0.6024579314188618  0.5679019387947766  1.0000
  N   N2        1.0  0.11582698372393872  0.6190212148611665  0.5162224036559151  1.0000
  C   C9        1.0  0.26767949394283325  0.6072746752571505  0.7779065053732408  1.0000
  C   C10       1.0  0.3413564498297558  0.5877513531465981  0.840159390761485  1.0000
  C   C11       1.0  0.4003693529749292  0.542844993648202  0.757328074905808  1.0000
  C   C12       1.0  0.435030399589258  0.3616648814925181  0.4235983806673582  1.0000
  C   C13       1.0  0.49404352560302517  0.3166643186483782  0.3408225617361873  1.0000
  C   C14       1.0  0.5674280402076782  0.3779811058762319  0.3555512634420879  1.0000
  H   H1        1.0  0.5347115054106327  0.6142414522646362  0.6107947851429485  1.0000
  H   H2        1.0  0.2998604025636292  0.5191248525245606  0.4355924691663309  1.0000
  H   H3        1.0  0.22243032338097488  0.6421311965294545  0.8432783883588761  1.0000
  H   H4        1.0  0.3527381428328939  0.6070893752806368  0.9529976521254744  1.0000
  H   H5        1.0  0.4567860493037701  0.5266514320226698  0.8084443621863304  1.0000
  H   H6        1.0  0.3788546283884728  0.31123342315732927  0.4116495432584204  1.0000
  H   H7        1.0  0.4828918107041251  0.2337686359577276  0.26534837630624586  1.0000
  H   H8        1.0  0.6126807140987163  0.3421640975919973  0.2907440308736253  1.0000
  C   C15       1.0  0.9194252579739501  0.1858616836266991  0.4970983780132023  1.0000
  C   C16       1.0  0.9050030442509214  0.26745303982753676  0.3656708593088747  1.0000
  C   C17       1.0  0.8839403608176597  0.20019455072686676  0.23856395764150684  1.0000
  C   C18       1.0  0.8770963850229383  0.04925682680651522  0.2427862274108128  1.0000
  C   C19       1.0  0.8923898102177171  0.9666258549760582  0.3716102309695999  1.0000
  C   C20       1.0  0.9148462694197925  0.0325829579167376  0.4992802025566467  1.0000
  C   C21       1.0  0.8685598215939292  0.28915607351470074  0.10301833097231561  1.0000
  O   O1        1.0  0.8492071011603706  0.2318858731481515  0.987131802777184  1.0000
  H   H9        1.0  0.9159645946929169  0.26548843968830926  0.8516761571705842  1.0000
  H   H10       1.0  0.9084424949489784  0.38446041550135046  0.36287424257803624  1.0000
  H   H11       1.0  0.860618687543544  0.9947432471940012  0.14613223161704658  1.0000
  H   H12       1.0  0.8883952793048816  0.8499849338822905  0.37047650201914384  1.0000
  H   H13       1.0  0.9158747255235139  0.7358722915730034  0.7377552299966263  1.0000
  H   H14       1.0  0.8738579280344837  0.40571827071049515  0.10198473428419019  1.0000
  C   C22       1.0  0.9184502767241434  0.6055068216679622  0.07502729399486063  1.0000
  C   C23       1.0  0.9803861648663275  0.6713205465993273  0.1493690657501643  1.0000
  C   C24       1.0  0.03792219337959413  0.7475560667783243  0.07433496923126737  1.0000
  C   C25       1.0  0.033504665717750036  0.7583680734534366  0.9228450236863256  1.0000
  C   C26       1.0  0.973180037834308  0.6918115161218923  0.8474441905849601  1.0000
  C   C27       1.0  0.9158212417298293  0.6129378285058145  0.9213512035652367  1.0000
  C   C28       1.0  0.10163049521987433  0.8163278715843276  0.15576531435667484  1.0000
  O   O2        1.0  0.15403790681606733  0.8860979978506753  0.09138975893559742  1.0000
  H   H15       1.0  0.7372766541716628  0.5028992801158587  0.16965987395160065  1.0000
  H   H16       1.0  0.07710260198293482  0.8171547933347094  0.8623691581031814  1.0000
  H   H17       1.0  0.9724285207313423  0.6992253597566931  0.7303250517180069  1.0000
  H   H18       1.0  0.7950859515068954  0.537991403324847  0.6350935869959398  1.0000
  H   H19       1.0  0.10391549601732586  0.8072726663600478  0.272851843755223  1.0000
  Zn  Zn1       1.0  0.8331152891184983  0.6050827268819294  0.4905630739783689  1.0000
  Zn  Zn2       1.0  0.0011488887009780669  0.6133608737275098  0.5058141351675092  1.0000
  C   C29       1.0  0.9163475301302029  0.6057897173162307  0.761362942076631  1.0000
  C   C30       1.0  0.9179184723342202  0.6126557940005257  0.23501457973274653  1.0000
  C   C31       1.0  0.9157256759394495  0.8724840157633154  0.4931250969970091  1.0000
  C   C32       1.0  0.9185402783154015  0.345959761276351  0.5032524919712813  1.0000
  O   O3        1.0  0.9815079032639776  0.6181902783413183  0.2944954563611297  1.0000
  O   O4        1.0  0.9802917204210246  0.6065370636338074  0.7134568503880869  1.0000
  O   O5        1.0  0.9797887010215575  0.8218960532466268  0.49685281849965834  1.0000
  O   O6        1.0  0.9820108656048221  0.402831295268333  0.5110993750263166  1.0000
  O   O7        1.0  0.8522532548730487  0.8156123025176834  0.48527782890754745  1.0000
  O   O8        1.0  0.8527562651404822  0.6002550443585317  0.7018817884250488  1.0000
  O   O9        1.0  0.8539724536880328  0.6119081936168542  0.2829186617634203  1.0000
  O   O10       1.0  0.8544754157458947  0.396549201180612  0.4995226884398345  1.0000
