data_image0
_chemical_formula_structural       NC6NC3H6C6ClH5C7NH4Zn2C4O8
_chemical_formula_sum              "N3 C26 H15 Cl1 Zn2 O8"
_cell_length_a       14.934028789175542
_cell_length_b       9.276545438789551
_cell_length_c       9.275157849593905
_cell_angle_alpha    86.141431454383
_cell_angle_beta     89.71635168279133
_cell_angle_gamma    89.37211250715544

_space_group_name_H-M_alt    "P 1"
_space_group_IT_number       1

loop_
  _space_group_symop_operation_xyz
  'x, y, z'

loop_
  _atom_site_type_symbol
  _atom_site_label
  _atom_site_symmetry_multiplicity
  _atom_site_fract_x
  _atom_site_fract_y
  _atom_site_fract_z
  _atom_site_occupancy
  N   N1        1.0  0.8376531100974514  0.5619101921878358  0.4107684027630326  1.0000
  C   C1        1.0  0.7601760157813454  0.560805636910984  0.410089083274948  1.0000
  C   C2        1.0  0.6637906457569355  0.5594264934367652  0.40924107907121643  1.0000
  C   C3        1.0  0.6151586919432708  0.6668340781778831  0.4751772339737137  1.0000
  C   C4        1.0  0.5216559303456739  0.6657267317843952  0.4744973190992725  1.0000
  C   C5        1.0  0.47587212926659833  0.5572666156420933  0.40791509884844  1.0000
  C   C6        1.0  0.37920752164042815  0.5595937494194902  0.4093449818367738  1.0000
  N   N2        1.0  0.30171244938674197  0.5614406266299241  0.41048010252818967  1.0000
  C   C7        1.0  0.5245105417808438  0.44837306511642194  0.3410661768892238  1.0000
  C   C8        1.0  0.47714876275249196  0.33045438548283546  0.26867869377903175  1.0000
  C   C9        1.0  0.6186352256291608  0.45061035127579596  0.342439670575855  1.0000
  H   H1        1.0  0.6495179666701854  0.751461297529667  0.5271293970664989  1.0000
  H   H2        1.0  0.48494053578049656  0.7497021974538836  0.5260492355461388  1.0000
  H   H3        1.0  0.4343392306320471  0.3786651640030898  0.18012241880131127  1.0000
  H   H4        1.0  0.43457649623560596  0.2683879172929833  0.34873576409152846  1.0000
  H   H5        1.0  0.5252258439413116  0.2540766878847279  0.22178497537209194  1.0000
  H   H6        1.0  0.6568346369334799  0.36775201237253874  0.2915738335359688  1.0000
  C   C10       1.0  0.07239025656095949  0.13823522911030553  0.4103849960949246  1.0000
  C   C11       1.0  0.07310242433391578  0.22060490932185786  0.2773681269000383  1.0000
  C   C12       1.0  0.06565985712761235  0.15427986402373106  0.1472514503362347  1.0000
  C   C13       1.0  0.05732585506357643  0.004705757416574527  0.14814987006388103  1.0000
  C   C14       1.0  0.058002043717086255  0.9207727429876362  0.27872435850271415  1.0000
  C   C15       1.0  0.06698396342431368  0.9851046234645384  0.4108759554943999  1.0000
  Cl  Cl1       1.0  0.0654277005089201  0.2593169709469578  0.9827252574314159  1.0000
  H   H7        1.0  0.11755104002856814  0.40333066810605045  0.6369315651002628  1.0000
  H   H8        1.0  0.0773062171300265  0.33729374169826487  0.2745122615769908  1.0000
  H   H9        1.0  0.05117623384223989  0.9530208424906864  0.04748408290859318  1.0000
  H   H10       1.0  0.05363176597723006  0.8044911777686049  0.276077061015914  1.0000
  H   H11       1.0  0.03631278293677195  0.688644429116788  0.6439300677986206  1.0000
  C   C16       1.0  0.07090128687105857  0.5575928318958365  0.9874295980458129  1.0000
  C   C17       1.0  0.14778085443305877  0.6045222008820581  0.05710493014660999  1.0000
  C   C18       1.0  0.21999467590090116  0.6627947922374664  0.9772154919066405  1.0000
  C   C19       1.0  0.21616920253240168  0.6750647398070939  0.8265659838123356  1.0000
  C   C20       1.0  0.14113806826621778  0.6269658597461851  0.7555472891587396  1.0000
  C   C21       1.0  0.06847293660815311  0.5657469427354076  0.833831370692451  1.0000
  C   C22       1.0  0.2977390587110511  0.7117313815609668  0.05019903501721901  1.0000
  N   N3        1.0  0.36022564008622104  0.7510632029522007  0.10886549296349933  1.0000
  H   H12       1.0  0.853341084797571  0.5091950399299174  0.09537438352220515  1.0000
  H   H13       1.0  0.27163709998764674  0.7206194400455024  0.7637349862370084  1.0000
  H   H14       1.0  0.14089157964752275  0.6345470518900918  0.638487367320161  1.0000
  H   H15       1.0  0.9229679035521695  0.5271061607107117  0.5564929374740517  1.0000
  Zn  Zn1       1.0  0.9715706255049644  0.561770901821494  0.4106935191484009  1.0000
  Zn  Zn2       1.0  0.16779500564483818  0.5615682188134804  0.410566761656048  1.0000
  C   C23       1.0  0.06896659927675407  0.5584612523403821  0.6738399582379059  1.0000
  C   C24       1.0  0.07040116261660612  0.5648796868304438  0.14742046368520012  1.0000
  C   C25       1.0  0.06801771793241594  0.8249729268721926  0.40504031506588345  1.0000
  C   C26       1.0  0.07134998784246765  0.29836628067821813  0.4162201827294966  1.0000
  O   O1        1.0  0.1446994861387657  0.567242014001011  0.20106675227376236  1.0000
  O   O2        1.0  0.1435980480923038  0.5559440016577375  0.6200970481621826  1.0000
  O   O3        1.0  0.1428308062681722  0.7711555648156216  0.4030394360163603  1.0000
  O   O4        1.0  0.1454666612489763  0.3520304601863795  0.41812425641322526  1.0000
  O   O5        1.0  0.9938989029390874  0.7713086605192573  0.4031360244269002  1.0000
  O   O6        1.0  0.9946661339199574  0.5560988290524509  0.6201935607361255  1.0000
  O   O7        1.0  0.9957675773178817  0.5673967744548578  0.20116153214944638  1.0000
  O   O8        1.0  0.9965347521802739  0.35218521136763625  0.41821914433094576  1.0000
