data_image0
_chemical_formula_structural       NC9NC4H8C6NO2H5C9H10Zn2C4O8
_chemical_formula_sum              "N3 C32 H23 O10 Zn2"
_cell_length_a       16.32274767691083
_cell_length_b       9.273392599741051
_cell_length_c       9.27267997650553
_cell_angle_alpha    86.14793757912345
_cell_angle_beta     89.86705810092191
_cell_angle_gamma    88.93063911827517

_space_group_name_H-M_alt    "P 1"
_space_group_IT_number       1

loop_
  _space_group_symop_operation_xyz
  'x, y, z'

loop_
  _atom_site_type_symbol
  _atom_site_label
  _atom_site_symmetry_multiplicity
  _atom_site_fract_x
  _atom_site_fract_y
  _atom_site_fract_z
  _atom_site_occupancy
  N   N1        1.0  0.7560359923079444  0.5554349673407  0.4015541294406124  1.0000
  C   C1        1.0  0.7037858086176235  0.5022635099055763  0.341167019370036  1.0000
  C   C2        1.0  0.6388381927756732  0.4362241457075908  0.266165745813725  1.0000
  C   C3        1.0  0.6505359441194768  0.3458940420231659  0.1635725857271346  1.0000
  C   C4        1.0  0.5712411063048057  0.3018125039256516  0.11351052628924062  1.0000
  C   C5        1.0  0.5122045398517019  0.36632488529084384  0.18678351693483863  1.0000
  C   C6        1.0  0.4222944337947457  0.34927487411120817  0.16742204087106272  1.0000
  C   C7        1.0  0.3665777989724666  0.4244681552802039  0.2528182364458238  1.0000
  C   C8        1.0  0.2818926830188542  0.40989639398113065  0.23627069262519448  1.0000
  C   C9        1.0  0.22576040851753204  0.487401248083079  0.3242912722504281  1.0000
  N   N2        1.0  0.18064902008853284  0.5497023936730954  0.39504491111059375  1.0000
  C   C10       1.0  0.2518713615027104  0.32000974644628144  0.13418953758603447  1.0000
  C   C11       1.0  0.30626591951254195  0.24491606730539048  0.04890683436255272  1.0000
  C   C12       1.0  0.39079286900192034  0.25909533131543294  0.06500848999342734  1.0000
  C   C13       1.0  0.5498075660402185  0.4603910064821928  0.2936170093547723  1.0000
  H   H1        1.0  0.7094998582470454  0.3107689042075694  0.12367643731126997  1.0000
  H   H2        1.0  0.5630643951593085  0.22798582112385188  0.029661059353209167  1.0000
  H   H3        1.0  0.38857748944576903  0.49463983793981864  0.332509905472961  1.0000
  H   H4        1.0  0.18649889621948243  0.3080056359004031  0.12055804309081308  1.0000
  H   H5        1.0  0.2828691616585738  0.1753803667965681  0.9699377122282468  1.0000
  H   H6        1.0  0.4306706390713273  0.19902522527093566  0.9967882548024916  1.0000
  H   H7        1.0  0.5336959465133453  0.42270419478546284  0.40620403186052667  1.0000
  H   H8        1.0  0.5322518196317655  0.5757730159290703  0.26927300671081955  1.0000
  C   C14       1.0  0.9708405401942629  0.12899897286575543  0.39735464781762997  1.0000
  C   C15       1.0  0.9598963457410136  0.21142180356869059  0.2658267442593647  1.0000
  C   C16       1.0  0.9417401878476185  0.14553872205769625  0.13918805530535017  1.0000
  C   C17       1.0  0.9339297390760882  0.9952382050394104  0.14054625754204375  1.0000
  C   C18       1.0  0.9461480661637  0.9116216259713449  0.2710492985489814  1.0000
  C   C19       1.0  0.9658524392860445  0.9761272056413034  0.39925668976961315  1.0000
  N   N3        1.0  0.9144822748438456  0.9279207432949643  0.009699999541456396  1.0000
  O   O1        1.0  0.9032356104238569  0.010129509488335565  0.8818806336797622  1.0000
  O   O2        1.0  0.9072681859772818  0.7940867608423869  0.010040748722925038  1.0000
  H   H9        1.0  0.9555268858057704  0.208564629030767  0.7514279229013623  1.0000
  H   H10       1.0  0.9634615811767714  0.32818139313522615  0.26151263106318123  1.0000
  H   H11       1.0  0.9329843676287897  0.21276806309612706  0.0402362525826665  1.0000
  H   H12       1.0  0.9421946250581907  0.7950812004008774  0.2721361335685928  1.0000
  H   H13       1.0  0.9583367207369533  0.6800892393368112  0.6385103814926695  1.0000
  C   C20       1.0  0.9667054111711723  0.5491795281175508  0.9749608296953922  1.0000
  C   C21       1.0  0.022909483717746374  0.45920548812643286  0.05417317379496289  1.0000
  C   C22       1.0  0.0830794134883612  0.3808654164443124  0.9844826798452804  1.0000
  C   C23       1.0  0.08907951735739039  0.3899222969658176  0.8335481432810488  1.0000
  C   C24       1.0  0.03190354060000877  0.47795201697198153  0.752962202802832  1.0000
  C   C25       1.0  0.9699875544004731  0.5559467058607592  0.821650590474121  1.0000
  C   C26       1.0  0.1569447731520599  0.30212452832816594  0.7661722903527596  1.0000
  C   C27       1.0  0.137824751514521  0.23637790739430087  0.624223269892608  1.0000
  C   C28       1.0  0.19469147046548074  0.36475188059309516  0.6258113792403415  1.0000
  H   H14       1.0  0.8427689814655271  0.6483680391726696  0.25002180675061925  1.0000
  H   H15       1.0  0.021655302178865896  0.4519472025507014  0.1712513221275862  1.0000
  H   H16       1.0  0.12588589690345686  0.3136344768595569  0.049315214894661834  1.0000
  H   H17       1.0  0.033699520201851296  0.48416275416990157  0.6361692052380499  1.0000
  H   H18       1.0  0.7831822086154476  0.6941521734745613  0.7101039832192682  1.0000
  H   H19       1.0  0.2001477297327101  0.23666028284459203  0.8375564372053557  1.0000
  H   H20       1.0  0.07682299543482785  0.2618138191655288  0.575529855819394  1.0000
  H   H21       1.0  0.17025947249068474  0.13210862550599242  0.609208271907892  1.0000
  H   H22       1.0  0.16827290296161923  0.4681013470364191  0.5779652062834639  1.0000
  H   H23       1.0  0.2603719245729412  0.3355019837444564  0.6117205646490709  1.0000
  Zn  Zn1       1.0  0.8785702012547875  0.553776865674281  0.3996840264314876  1.0000
  Zn  Zn2       1.0  0.058114932790543465  0.5513487535033534  0.39692679774086803  1.0000
  C   C29       1.0  0.9693991745252744  0.5489213941729467  0.6615951795159438  1.0000
  C   C30       1.0  0.9672879099751682  0.5562060195633722  0.1350157601301476  1.0000
  C   C31       1.0  0.966768808184244  0.8159561065010109  0.3931524681719536  1.0000
  C   C32       1.0  0.9699182255521709  0.2891695757187154  0.40345854538342557  1.0000
  O   O3        1.0  0.035619728860498225  0.5576364256759758  0.18768528885613334  1.0000
  O   O4        1.0  0.03733765729179117  0.5456470156537825  0.606832560574541  1.0000
  O   O5        1.0  0.03521269050696274  0.7612809473760589  0.3900631893605895  1.0000
  O   O6        1.0  0.03774463389910032  0.342002504236564  0.4044545529417518  1.0000
  O   O7        1.0  0.8989404388763862  0.7631231157711762  0.39215627216393156  1.0000
  O   O8        1.0  0.9010653951553974  0.5474909163955972  0.6089255704019235  1.0000
  O   O9        1.0  0.8993474603556633  0.5594802623001982  0.18977656531123419  1.0000
  O   O10       1.0  0.9014723658706477  0.3438463314080269  0.40654593745851364  1.0000
