data_image0
_chemical_formula_structural       NC9NC5H8C7OC3NC3H11C7OC3OC4H12Zn2C4O8
_chemical_formula_sum              "N3 C45 H31 O11 Zn2"
_cell_length_a       17.807436237873137
_cell_length_b       10.298746005989749
_cell_length_c       10.299374482448636
_cell_angle_alpha    85.55101224981433
_cell_angle_beta     89.37372472773511
_cell_angle_gamma    88.3993582553778

_space_group_name_H-M_alt    "P 1"
_space_group_IT_number       1

loop_
  _space_group_symop_operation_xyz
  'x, y, z'

loop_
  _atom_site_type_symbol
  _atom_site_label
  _atom_site_symmetry_multiplicity
  _atom_site_fract_x
  _atom_site_fract_y
  _atom_site_fract_z
  _atom_site_occupancy
  N   N1        1.0  0.7078058304392112  0.3881953735550897  0.5571538979699613  1.0000
  C   C1        1.0  0.6472170140637532  0.3530053063740295  0.5461274717196571  1.0000
  C   C2        1.0  0.5718511857701091  0.3092327381375844  0.5324117947041076  1.0000
  C   C3        1.0  0.5537722927947004  0.237835757651778  0.4274005752573906  1.0000
  C   C4        1.0  0.4805959670963448  0.1952244805390233  0.41400089864475476  1.0000
  C   C5        1.0  0.42444978635291025  0.2236326311062298  0.5055799663268471  1.0000
  C   C6        1.0  0.3466822114329434  0.17846272516575756  0.4914216646051182  1.0000
  C   C7        1.0  0.2845087879980097  0.26021960975077857  0.5173664183012987  1.0000
  C   C8        1.0  0.2111901358623075  0.21740527502392287  0.5039804114060432  1.0000
  C   C9        1.0  0.147966808859241  0.30185364656368346  0.5302892408228461  1.0000
  N   N2        1.0  0.097148241825926  0.36974429455781704  0.5514408128138434  1.0000
  C   C10       1.0  0.1994613427191483  0.09257606065964556  0.4646242848757103  1.0000
  C   C11       1.0  0.2607773965671825  0.010805324563679657  0.4386711403329764  1.0000
  C   C12       1.0  0.3339766167420743  0.053225132365184  0.45185457757273517  1.0000
  C   C13       1.0  0.4432200900968473  0.2955239681384274  0.6108104532185143  1.0000
  C   C14       1.0  0.516449297756038  0.33794487082492153  0.6240544616726766  1.0000
  H   H1        1.0  0.5961782351374695  0.2153650051736946  0.3556836428715162  1.0000
  H   H2        1.0  0.46769355900964676  0.1415567048578122  0.3310739851421365  1.0000
  H   H3        1.0  0.29301011852965625  0.3576857981566049  0.5462503260600688  1.0000
  H   H4        1.0  0.1429950615638708  0.05853967302608587  0.45402698296685357  1.0000
  H   H5        1.0  0.2515780182322009  0.9141595744003912  0.40858682166035987  1.0000
  H   H6        1.0  0.3806147640667578  0.9874791234881232  0.43280156104650774  1.0000
  H   H7        1.0  0.4015307403770821  0.31745533384643126  0.6838219038610552  1.0000
  H   H8        1.0  0.529880360775839  0.392833567159576  0.7059397786004384  1.0000
  C   C15       1.0  0.9024447273259445  0.9975693019403473  0.5542806810807483  1.0000
  C   C16       1.0  0.9376107517219557  0.004438937386261  0.43125702448513265  1.0000
  C   C17       1.0  0.9546025294409095  0.8908267868777339  0.3683728838675857  1.0000
  C   C18       1.0  0.9376113239605114  0.7692023218329576  0.43120787763350626  1.0000
  C   C19       1.0  0.90251650631306  0.7603600814630668  0.5543251836928718  1.0000
  C   C20       1.0  0.884975088793399  0.8751075435561655  0.6149285443731995  1.0000
  C   C21       1.0  0.9923759731938512  0.8978591658861406  0.23899953027787268  1.0000
  O   O1        1.0  0.03825044605310965  0.8077133566092253  0.21311343735876775  1.0000
  C   C22       1.0  0.9781093129570717  0.007097430224203285  0.13900041137890987  1.0000
  C   C23       1.0  0.9069748588802807  0.0698635636485132  0.1279364256202713  1.0000
  C   C24       1.0  0.8938279039168658  0.17218108476260266  0.03221989366960987  1.0000
  N   N3        1.0  0.8214906784669803  0.23584619165043932  0.022076957951997052  1.0000
  C   C25       1.0  0.9518621148924891  0.21133815336115802  0.9462318174364026  1.0000
  C   C26       1.0  0.022311157809459473  0.1484401912626663  0.9554497382166773  1.0000
  C   C27       1.0  0.0353997326167943  0.04654998525165488  0.050862910550558256  1.0000
  H   H9        1.0  0.837039917013314  0.1918346733623293  0.7875823636253781  1.0000
  H   H10       1.0  0.9525589910057124  0.09825863062565413  0.38481461835665876  1.0000
  H   H11       1.0  0.9511691473117081  0.6813798910396023  0.3833097513392776  1.0000
  H   H12       1.0  0.8578721360739852  0.8690600423281584  0.7097593460824944  1.0000
  H   H13       1.0  0.8364874679425154  0.5363211779730115  0.7871474868118733  1.0000
  H   H14       1.0  0.8614678929416137  0.03860042429517896  0.19256853902789528  1.0000
  H   H15       1.0  0.7778292170741541  0.2074458860692059  0.0856705020080948  1.0000
  H   H16       1.0  0.8110816124081249  0.3119722492647011  0.9509893634785468  1.0000
  H   H17       1.0  0.9424080486726014  0.29015593967232145  0.8718813781091432  1.0000
  H   H18       1.0  0.06689807032230166  0.17871189529412848  0.8884987519271417  1.0000
  H   H19       1.0  0.09049704417049709  0.9992953806821976  0.05658216767075852  1.0000
  C   C28       1.0  0.9025502253822912  0.3790488805093526  0.17291938713923272  1.0000
  C   C29       1.0  0.9810233329823216  0.3899955985100818  0.1693974088528376  1.0000
  C   C30       1.0  0.02050823602359175  0.3969928245659977  0.05033471115062805  1.0000
  C   C31       1.0  0.9808437543049862  0.38994023253441285  0.9341611893473251  1.0000
  C   C32       1.0  0.9024110088363726  0.37888046993866076  0.9356864468991715  1.0000
  C   C33       1.0  0.8636968478455035  0.37384085329429834  0.05556542896766592  1.0000
  C   C34       1.0  0.10345845962319622  0.4071889979600681  0.04657936625994942  1.0000
  O   O2        1.0  0.1403109689773132  0.35189593256251217  0.9601882782509605  1.0000
  C   C35       1.0  0.14459819096424956  0.4801271614005582  0.14074799624933676  1.0000
  C   C36       1.0  0.21789070919583356  0.43993282696777003  0.17783462166325184  1.0000
  C   C37       1.0  0.2580252950312176  0.5083009010737456  0.26545324065569004  1.0000
  O   O3        1.0  0.33070716705953074  0.46296070683190665  0.29967747267995626  1.0000
  C   C38       1.0  0.3777828281827866  0.5226057581678453  0.387382727651876  1.0000
  C   C39       1.0  0.22445204050275613  0.6192879048288008  0.3158670710073686  1.0000
  C   C40       1.0  0.15203678468393478  0.6607739923631462  0.27825709840341184  1.0000
  C   C41       1.0  0.11233578262855091  0.5921523414761649  0.1908731358176299  1.0000
  H   H20       1.0  0.7545900539112834  0.35639730218523025  0.3870397191919948  1.0000
  H   H21       1.0  0.011621276614351302  0.3916378021772678  0.2595398928405366  1.0000
  H   H22       1.0  0.011268655604478086  0.39435446710011623  0.842321485011028  1.0000
  H   H23       1.0  0.8031998151455925  0.365400881999038  0.057476901416963384  1.0000
  H   H24       1.0  0.8723513895800664  0.37354486311410634  0.6088983455051209  1.0000
  H   H25       1.0  0.24393643383507707  0.3543792262994297  0.13956889119634908  1.0000
  H   H26       1.0  0.4318551211653765  0.4666815023359377  0.39654479217842753  1.0000
  H   H27       1.0  0.35065455051123834  0.5220902842176789  0.48501539362728324  1.0000
  H   H28       1.0  0.389342342376134  0.6240723955506525  0.3495576619903502  1.0000
  H   H29       1.0  0.2538969610961319  0.6743350431971133  0.3836293318721007  1.0000
  H   H30       1.0  0.12669666780505762  0.7467832455169112  0.3165414353247509  1.0000
  H   H31       1.0  0.05678493900809434  0.6275144811824447  0.1614660507600607  1.0000
  Zn  Zn1       1.0  0.8201616372165428  0.38286732349155744  0.5555127358817107  1.0000
  Zn  Zn2       1.0  0.9847924139064379  0.3750617552169367  0.5530926513059655  1.0000
  C   C42       1.0  0.9024351678519191  0.3737382868755815  0.7915068984440295  1.0000
  C   C43       1.0  0.902520681164991  0.38419234532294766  0.3170985898833801  1.0000
  C   C44       1.0  0.9025000247681398  0.6161776957796028  0.5491414695164281  1.0000
  C   C45       1.0  0.9024557679122973  0.14175137863585774  0.5594640887870077  1.0000
  O   O4        1.0  0.9649872870958146  0.38295070041062323  0.36456803760279827  1.0000
  O   O5        1.0  0.9649195121078726  0.369054706355251  0.7422002886110008  1.0000
  O   O6        1.0  0.9649710424280946  0.5648276347434072  0.5464885024359343  1.0000
  O   O7        1.0  0.9649357006169064  0.18717778399846569  0.5602797272258127  1.0000
  O   O8        1.0  0.8400182943256712  0.5707512973751012  0.5483256607808884  1.0000
  O   O9        1.0  0.8399667641615194  0.3749799294350864  0.7440373777989531  1.0000
  O   O10       1.0  0.8400345394801372  0.38887587857312017  0.3664035653267603  1.0000
  O   O11       1.0  0.839982952979512  0.19310295285003654  0.5621153523208522  1.0000
