data_image0
_chemical_formula_structural       NC8NC6H8C6NCOH6C7OH4Zn2C4O8
_chemical_formula_sum              "N3 C32 H18 O10 Zn2"
_cell_length_a       17.457602349358154
_cell_length_b       10.299619329790078
_cell_length_c       9.274081674992354
_cell_angle_alpha    86.07708878693475
_cell_angle_beta     92.53340075860572
_cell_angle_gamma    91.71362633690529

_space_group_name_H-M_alt    "P 1"
_space_group_IT_number       1

loop_
  _space_group_symop_operation_xyz
  'x, y, z'

loop_
  _atom_site_type_symbol
  _atom_site_label
  _atom_site_symmetry_multiplicity
  _atom_site_fract_x
  _atom_site_fract_y
  _atom_site_fract_z
  _atom_site_occupancy
  N   N1        1.0  0.727470617995994  0.44078943454911235  0.4762217971526937  1.0000
  C   C1        1.0  0.6664164575746654  0.39477081706653155  0.4644365917858139  1.0000
  C   C2        1.0  0.5904624681352194  0.3375294550523533  0.4497863845203028  1.0000
  C   C3        1.0  0.5316904999633592  0.37834869333157733  0.5328957462156052  1.0000
  C   C4        1.0  0.4571730734985529  0.3232309970570746  0.5189275915941989  1.0000
  C   C5        1.0  0.39479580866393543  0.366332193996485  0.6069435399157923  1.0000
  C   C6        1.0  0.3204432034179275  0.38431142653505823  0.5450729093354301  1.0000
  C   C7        1.0  0.26167081725051244  0.4249476855031453  0.6283020270323427  1.0000
  C   C8        1.0  0.185887732477847  0.44351333588887737  0.563973284365009  1.0000
  N   N2        1.0  0.1249710466161348  0.4584337403914176  0.5122531419717595  1.0000
  C   C9        1.0  0.2767572136049847  0.44785231654465885  0.7739660420081831  1.0000
  C   C10       1.0  0.3503239038056982  0.43026547368602414  0.8362667916082667  1.0000
  C   C11       1.0  0.4090831805179729  0.38981328612390875  0.7535455701049651  1.0000
  C   C12       1.0  0.44272094076325375  0.22660406673242006  0.4202600647817121  1.0000
  C   C13       1.0  0.5014799082934543  0.18606701966591446  0.3375945711558699  1.0000
  C   C14       1.0  0.5752107337145511  0.2413019174700006  0.35217294600261306  1.0000
  H   H1        1.0  0.5438285727024058  0.45412807288202806  0.6068372417292882  1.0000
  H   H2        1.0  0.3084402612245757  0.3684458983318155  0.43186811767839073  1.0000
  H   H3        1.0  0.23170490903832844  0.4792514892235411  0.8392524692548449  1.0000
  H   H4        1.0  0.36181481594011217  0.4476853961020104  0.9490576430497668  1.0000
  H   H5        1.0  0.4654084173003957  0.3752259314709872  0.8047015582140495  1.0000
  H   H6        1.0  0.3862603379478306  0.18117480383082782  0.4084348672938629  1.0000
  H   H7        1.0  0.4898600072280872  0.11139359385833947  0.26232361632850876  1.0000
  H   H8        1.0  0.6202611168799615  0.20903752656386512  0.2874535239441791  1.0000
  C   C15       1.0  0.9261228810297777  0.06823843626215731  0.4941910687696165  1.0000
  C   C16       1.0  0.889540206145731  0.073621031627503  0.3559743178427579  1.0000
  C   C17       1.0  0.8722543206614258  0.9596477475433571  0.2854370300886555  1.0000
  C   C18       1.0  0.8897682878872287  0.8384735909410187  0.35610595140451284  1.0000
  C   C19       1.0  0.9263260444421377  0.8309751715337078  0.49429702343373405  1.0000
  C   C20       1.0  0.9445691310002996  0.9464727067799307  0.5623106581124078  1.0000
  N   N3        1.0  0.8337517167453099  0.968914952498114  0.14491340402419262  1.0000
  C   C21       1.0  0.846158289882546  0.8838750695281392  0.032626653314964164  1.0000
  O   O1        1.0  0.8999873508283134  0.8045887717113932  0.043565421982109116  1.0000
  H   H9        1.0  0.9943980545783688  0.2652602395039201  0.7555559166489991  1.0000
  H   H10       1.0  0.8748381039392896  0.16664569227048243  0.3018133551900859  1.0000
  H   H11       1.0  0.8735194141992366  0.749957904313155  0.30477457161609256  1.0000
  H   H12       1.0  0.9727793494735024  0.9414481285756143  0.6688531375571349  1.0000
  H   H13       1.0  0.7983202474737968  0.0477559833462482  0.11835766655033786  1.0000
  H   H14       1.0  0.8100359362724838  0.8903808464238742  0.9347010562423228  1.0000
  C   C22       1.0  0.9275180117336816  0.4462598128153203  0.0710911647753032  1.0000
  C   C23       1.0  0.9898256089272468  0.5055456060709533  0.145271584786564  1.0000
  C   C24       1.0  0.04779220770403871  0.5742194775587177  0.07005058600447178  1.0000
  C   C25       1.0  0.04343574512776672  0.5839590629276918  0.9185341332813469  1.0000
  C   C26       1.0  0.9827352127530546  0.524004117331168  0.8432964730837216  1.0000
  C   C27       1.0  0.9249309462906331  0.45295375295515483  0.9173968561713624  1.0000
  C   C28       1.0  0.11188892552218492  0.6361699446656535  0.15131232723064647  1.0000
  O   O2        1.0  0.16469039151168707  0.6990197117250287  0.08676572038272812  1.0000
  H   H15       1.0  0.745764872492628  0.3538297079812498  0.1659753017712291  1.0000
  H   H16       1.0  0.08736570265301036  0.6369148457023728  0.8579141436604081  1.0000
  H   H17       1.0  0.8037723664782181  0.3854411137121805  0.631322981464807  1.0000
  H   H18       1.0  0.11412278346535382  0.6280129071271487  0.26842105675777184  1.0000
  Zn  Zn1       1.0  0.8421806288849355  0.4458777831424558  0.48662798448773575  1.0000
  Zn  Zn2       1.0  0.01026098257705344  0.4533348371678685  0.501858750617868  1.0000
  C   C29       1.0  0.9254168629048449  0.44651464861034096  0.7574261192979985  1.0000
  C   C30       1.0  0.9270265839935663  0.45269969288806533  0.23106092378673293  1.0000
  C   C31       1.0  0.9263012702847283  0.686756073277899  0.48853443506513256  1.0000
  C   C32       1.0  0.9261421186090952  0.21245670596289146  0.49995267943033955  1.0000
  O   O3        1.0  0.9906472731134099  0.4576852228021817  0.2905282318364997  1.0000
  O   O4        1.0  0.9893652741296906  0.447187867142196  0.7095181953832448  1.0000
  O   O5        1.0  0.9900785798329106  0.6411858295313886  0.4923861801812183  1.0000
  O   O6        1.0  0.989933910388503  0.2636872663041514  0.5076601337992512  1.0000
  O   O7        1.0  0.8625076437159337  0.6355253514628008  0.4808265961012596  1.0000
  O   O8        1.0  0.8617943386597495  0.4415289487878514  0.6979585346874537  1.0000
  O   O9        1.0  0.8630763429784172  0.4520262454904225  0.27896683866649474  1.0000
  O   O10       1.0  0.8623629799176449  0.2580282805578571  0.49609884866342974  1.0000
