data_image0
_chemical_formula_structural       NC8NC6H8C10BrC2H9C10IC2H9Zn2C4O8
_chemical_formula_sum              "N2 C42 H26 Br1 I1 Zn2 O8"
_cell_length_a       17.457602349358154
_cell_length_b       10.299768994317796
_cell_length_c       10.299773630820606
_cell_angle_alpha    85.54444393526653
_cell_angle_beta     92.88150931118494
_cell_angle_gamma    91.70635362943699

_space_group_name_H-M_alt    "P 1"
_space_group_IT_number       1

loop_
  _space_group_symop_operation_xyz
  'x, y, z'

loop_
  _atom_site_type_symbol
  _atom_site_label
  _atom_site_symmetry_multiplicity
  _atom_site_fract_x
  _atom_site_fract_y
  _atom_site_fract_z
  _atom_site_occupancy
  N   N1        1.0  0.7226274667772499  0.45324690161883074  0.6265532398362801  1.0000
  C   C1        1.0  0.6615402678711356  0.4073253117661882  0.6159355581177637  1.0000
  C   C2        1.0  0.5855452109877005  0.35020456537317624  0.6027367043333787  1.0000
  C   C3        1.0  0.5270281647695431  0.3903429344649918  0.6776366531190972  1.0000
  C   C4        1.0  0.45247162463636714  0.3353402448807319  0.6650523287405564  1.0000
  C   C5        1.0  0.3903643416542105  0.3777203771928456  0.7443742099999271  1.0000
  C   C6        1.0  0.315818220724441  0.3962059070984639  0.6886109766186138  1.0000
  C   C7        1.0  0.2573011425335053  0.4361603186568075  0.763618872527168  1.0000
  C   C8        1.0  0.1813168636122311  0.4552523830573698  0.7056401839605343  1.0000
  N   N2        1.0  0.12023841866586252  0.47059602313880894  0.6590254691426638  1.0000
  C   C9        1.0  0.2728380956110984  0.45787218254639883  0.8948985336284088  1.0000
  C   C10       1.0  0.3465996067984344  0.43977551644077634  0.9510493842385548  1.0000
  C   C11       1.0  0.40510513846290275  0.4000010161516075  0.876499220855897  1.0000
  C   C12       1.0  0.4377205721972837  0.23952221543288243  0.5761350961488756  1.0000
  C   C13       1.0  0.49622597429116755  0.19966240042484637  0.5016351654144999  1.0000
  C   C14       1.0  0.5699977992240596  0.25477729450897524  0.5147694488398875  1.0000
  H   H1        1.0  0.5393899877645889  0.46551608327942756  0.7442709885900314  1.0000
  H   H2        1.0  0.3034649725682483  0.38126733129473606  0.5865850197961664  1.0000
  H   H3        1.0  0.2279860960962326  0.4887365074310195  0.953736125890066  1.0000
  H   H4        1.0  0.358439419319078  0.4562718567596394  0.05270214068693257  1.0000
  H   H5        1.0  0.46159035672351434  0.3849950404764113  0.92260545611185  1.0000
  H   H6        1.0  0.38122676114503135  0.19419030055970612  0.5654813212081959  1.0000
  H   H7        1.0  0.48437810912062157  0.12560607598451634  0.43380254391470496  1.0000
  H   H8        1.0  0.6148497049410195  0.2230431198234244  0.45644295052308337  1.0000
  C   C15       1.0  0.9213643328062948  0.08055322177573299  0.6427797613252657  1.0000
  C   C16       1.0  0.9276237494907156  0.09042411408623852  0.5069669147745792  1.0000
  C   C17       1.0  0.9308691214844905  0.9782894735948892  0.43816517351013595  1.0000
  C   C18       1.0  0.9277700474058814  0.8551424689796975  0.5069984595043955  1.0000
  C   C19       1.0  0.9215088836689954  0.8432800002228235  0.6428107994709693  1.0000
  C   C20       1.0  0.9183415997996937  0.9565441489316173  0.709941055905897  1.0000
  C   C21       1.0  0.9374915628918961  0.9897850585670217  0.29448711062368615  1.0000
  C   C22       1.0  0.9868507469743258  0.909077921600283  0.23516847450081646  1.0000
  C   C23       1.0  0.993010387932511  0.9200992415627164  0.09991971729588478  1.0000
  C   C24       1.0  0.9500333680064474  0.01155597854185952  0.022360155292427294  1.0000
  Br  Br1       1.0  0.9585468205097389  0.026334055142972053  0.8376321225088644  1.0000
  C   C25       1.0  0.9008168821073731  0.09218191785078633  0.08018299588638045  1.0000
  C   C26       1.0  0.8945113589073768  0.08156528509706451  0.2154005637753167  1.0000
  H   H9        1.0  0.9189431881533426  0.4042442915019431  0.6945240833770103  1.0000
  H   H10       1.0  0.9310476847193665  0.18559619187416446  0.45459574654317886  1.0000
  H   H11       1.0  0.9291938228693144  0.7683852176827969  0.4541990429546105  1.0000
  H   H12       1.0  0.9135120166894587  0.9481609154864149  0.8147141700997684  1.0000
  H   H13       1.0  0.9191536801491377  0.5113072306611957  0.69456888725264  1.0000
  H   H14       1.0  0.021400099022207852  0.8386722559189715  0.293493482057793  1.0000
  H   H15       1.0  0.03135222546721763  0.8577185189251966  0.05554811335260523  1.0000
  H   H16       1.0  0.8672741085869018  0.16289307394660657  0.020422288442644154  1.0000
  H   H17       1.0  0.8553132988836399  0.14390159781326406  0.2579377816832764  1.0000
  C   C27       1.0  0.9214163934806184  0.4620338629450314  0.26142350225712163  1.0000
  C   C28       1.0  0.9987757651686574  0.5036008347599756  0.26378989940441877  1.0000
  C   C29       1.0  0.03799473926785369  0.5245438935312028  0.147861397220183  1.0000
  C   C30       1.0  0.9988165696808826  0.503363827341768  0.028525383483348536  1.0000
  C   C31       1.0  0.9214568134126567  0.4617993913385354  0.024167000772965064  1.0000
  C   C32       1.0  0.8831900022348077  0.441366495439828  0.1411328495635431  1.0000
  C   C33       1.0  0.11983363190854247  0.5685168664749106  0.15141838576580888  1.0000
  C   C34       1.0  0.17217347239607306  0.5147871035143792  0.07224376578829327  1.0000
  C   C35       1.0  0.249179670373777  0.5563003713684005  0.07579122198774968  1.0000
  C   C36       1.0  0.2748322521533648  0.6518011117094402  0.15815335542063624  1.0000
  I   I1        1.0  0.3910267793387811  0.7142355229538959  0.1632017738184679  1.0000
  C   C37       1.0  0.22338060505252888  0.7058716687377813  0.23716535869137884  1.0000
  C   C38       1.0  0.14633137452014247  0.6646076839910566  0.2340187490292407  1.0000
  H   H18       1.0  0.891929073900682  0.44625143739956435  0.5879698797795121  1.0000
  H   H19       1.0  0.02900872434136126  0.5180718456603202  0.3561724330988212  1.0000
  H   H20       1.0  0.028489709926837758  0.5210806986658152  0.938746775571325  1.0000
  H   H21       1.0  0.823510606227283  0.40930050308651955  0.1385388615873051  1.0000
  H   H22       1.0  0.8919887421588532  0.44590624530888734  0.6950578187752776  1.0000
  H   H23       1.0  0.15377032775189942  0.4395245696360366  0.008900740368361634  1.0000
  H   H24       1.0  0.28890895304049335  0.513948485564546  0.014726264531484734  1.0000
  H   H25       1.0  0.2429991842426538  0.780112579978  0.3008089746875915  1.0000
  H   H26       1.0  0.1072887051538769  0.7090034774580434  0.29486575731780773  1.0000
  Zn  Zn1       1.0  0.8373693983927174  0.4582499983248134  0.6359315221583233  1.0000
  Zn  Zn2       1.0  0.005496471346100321  0.4655822753588675  0.6496578189946126  1.0000
  C   C39       1.0  0.9214464872381447  0.4566699364641047  0.8799918252305096  1.0000
  C   C40       1.0  0.9214212187603853  0.46716405586590426  0.4055977933471979  1.0000
  C   C41       1.0  0.9214773366137746  0.6991098194346483  0.63762938135385  1.0000
  C   C42       1.0  0.921390311722702  0.22472261007169173  0.6479603017157318  1.0000
  O   O1        1.0  0.9852261850788016  0.47166269066352456  0.4591930603692244  1.0000
  O   O2        1.0  0.9852460788901976  0.4577353506718043  0.8368141260136677  1.0000
  O   O3        1.0  0.98527013012309  0.6535085843158773  0.6411046676620635  1.0000
  O   O4        1.0  0.9852020764721271  0.2758894638375893  0.6549024166619553  1.0000
  O   O5        1.0  0.8576637358931718  0.6479428073453612  0.6306869198000387  1.0000
  O   O6        1.0  0.857639684948814  0.4521711340242261  0.8263963089688262  1.0000
  O   O7        1.0  0.8576197910971067  0.46609842924232975  0.4487736819143455  1.0000
  O   O8        1.0  0.8575956824906956  0.27032519309752634  0.6444831355750076  1.0000
