data_image0
_chemical_formula_structural       NC9NC4H8C7OCH9C7NC2NH8Zn2C4O8
_chemical_formula_sum              "N4 C34 H25 O9 Zn2"
_cell_length_a       16.32274767691083
_cell_length_b       10.30083208314754
_cell_length_c       9.27399911348925
_cell_angle_alpha    85.04366218099177
_cell_angle_beta     89.127461349941
_cell_angle_gamma    89.51862078510035

_space_group_name_H-M_alt    "P 1"
_space_group_IT_number       1

loop_
  _space_group_symop_operation_xyz
  'x, y, z'

loop_
  _atom_site_type_symbol
  _atom_site_label
  _atom_site_symmetry_multiplicity
  _atom_site_fract_x
  _atom_site_fract_y
  _atom_site_fract_z
  _atom_site_occupancy
  N   N1        1.0  0.7767512516736391  0.4243916882050453  0.39549301809133053  1.0000
  C   C1        1.0  0.7246286595122347  0.37742604320666495  0.335166858142812  1.0000
  C   C2        1.0  0.6598395134342983  0.31909434657080893  0.2602412850967235  1.0000
  C   C3        1.0  0.6717540578000646  0.23930703254328176  0.15775166379333716  1.0000
  C   C4        1.0  0.5925649876396879  0.2003703693380452  0.10774013676684624  1.0000
  C   C5        1.0  0.5333735725990266  0.2573532134022203  0.18093918479962046  1.0000
  C   C6        1.0  0.4435043633586643  0.24229312935076794  0.1615972560022434  1.0000
  C   C7        1.0  0.3876073017509542  0.30871037822733444  0.24690725642210068  1.0000
  C   C8        1.0  0.30295714031828347  0.295839308959186  0.23037641826463684  1.0000
  C   C9        1.0  0.24663889853091753  0.36429835286200896  0.3183081518717653  1.0000
  N   N2        1.0  0.20137802605925592  0.41932816226056896  0.3889903726242645  1.0000
  C   C10       1.0  0.2731514868882012  0.21644356828476496  0.12839830431834676  1.0000
  C   C11       1.0  0.3277262299602589  0.1501142909527391  0.04320168255179313  1.0000
  C   C12       1.0  0.4122191676968219  0.16263867446191682  0.059287082275437004  1.0000
  C   C13       1.0  0.5707508602184628  0.34044054253360034  0.287664852451051  1.0000
  H   H1        1.0  0.7308022906026854  0.20828152808434688  0.11789577359334857  1.0000
  H   H2        1.0  0.5845654626410928  0.13516029862393686  0.02397529169282464  1.0000
  H   H3        1.0  0.4094386260703522  0.37069213762797903  0.32651848465344546  1.0000
  H   H4        1.0  0.2078078150585405  0.20584047164381955  0.11478057214589521  1.0000
  H   H5        1.0  0.3044963102634539  0.08869428229321771  0.9643122725194707  1.0000
  H   H6        1.0  0.45224107105756  0.10957951878332595  0.9911357072564765  1.0000
  H   H7        1.0  0.553600721321715  0.3048204362543565  0.40049263159451753  1.0000
  H   H8        1.0  0.5540471636162053  0.4446877267120582  0.26299103692784453  1.0000
  C   C14       1.0  0.9890909329564048  0.040521665036567844  0.3923927520938646  1.0000
  C   C15       1.0  0.9667724837445208  0.051349964744637155  0.2461756015001766  1.0000
  C   C16       1.0  0.9545767407207462  0.9396631949719992  0.17299993190491292  1.0000
  C   C17       1.0  0.9667146099559245  0.8160947051517461  0.2457951319966041  1.0000
  C   C18       1.0  0.989046181504897  0.8031879598217937  0.3921030376129333  1.0000
  C   C19       1.0  0.9999109020620195  0.9159489229570222  0.4646290463963747  1.0000
  C   C20       1.0  0.9330492166429961  0.9524266270997702  0.015452477165827544  1.0000
  O   O1        1.0  0.006097888420085958  0.9581169486611155  0.9318221488756389  1.0000
  C   C21       1.0  0.9867147400006008  0.9701385237510621  0.7836233347477437  1.0000
  H   H9        1.0  0.9587995094252912  0.14658183609239428  0.18859681914924534  1.0000
  H   H10       1.0  0.9587011606788927  0.7301816944076979  0.18795516876067092  1.0000
  H   H11       1.0  0.01713083134647198  0.9068347640666666  0.5773936979746563  1.0000
  H   H12       1.0  0.032073123301293416  0.5716135122638974  0.6676478799196128  1.0000
  H   H13       1.0  0.895406511844617  0.04233554587076459  0.9918996931867593  1.0000
  H   H14       1.0  0.8954405116272912  0.8672482643502804  0.9915682147136122  1.0000
  H   H15       1.0  0.04464718880734608  0.9744819219586552  0.7193392950957664  1.0000
  H   H16       1.0  0.9519156338919885  0.061697183534374034  0.7540570143393595  1.0000
  H   H17       1.0  0.9519310662086058  0.8842177838798446  0.7536991084474813  1.0000
  C   C22       1.0  0.9904834271606898  0.4251614348813811  0.9683735614635256  1.0000
  C   C23       1.0  0.05480489074192407  0.36221309253975864  0.04589676375492193  1.0000
  C   C24       1.0  0.11370324819484744  0.2900845235078968  0.9763698409942023  1.0000
  C   C25       1.0  0.10986317866350286  0.27841931023137567  0.827136711964771  1.0000
  C   C26       1.0  0.046774716853707154  0.3435459314115469  0.7480351486639525  1.0000
  C   C27       1.0  0.9876536601652148  0.41854819658822656  0.8161221583187844  1.0000
  C   C28       1.0  0.17274829310674145  0.20000471981510426  0.7555077276316697  1.0000
  N   N3        1.0  0.2413636422994656  0.15381370405842376  0.8225130643861513  1.0000
  C   C29       1.0  0.2810315614222132  0.08836502091307352  0.7226073437577001  1.0000
  C   C30       1.0  0.23627565803015105  0.09537050659749079  0.5977481833515311  1.0000
  N   N4        1.0  0.16817324786420262  0.16552283305558357  0.6185977449472628  1.0000
  H   H18       1.0  0.903256092852322  0.5901096070279475  0.2362241044009472  1.0000
  H   H19       1.0  0.058516229022490734  0.36603319700479564  0.1619896095606994  1.0000
  H   H20       1.0  0.16175594685178507  0.241673067437415  0.04037991589773072  1.0000
  H   H21       1.0  0.044748175204128764  0.34005644159701187  0.6319625245738831  1.0000
  H   H22       1.0  0.8598098914170514  0.49336427802659144  0.5322898755518439  1.0000
  H   H23       1.0  0.3389952402217582  0.03824953890613525  0.7401069659457162  1.0000
  H   H24       1.0  0.2520053167781382  0.05182179195998281  0.49883113866257883  1.0000
  H   H25       1.0  0.1218192214060274  0.18575871941239194  0.543594701461141  1.0000
  Zn  Zn1       1.0  0.8992893449049041  0.42292691367143487  0.3936248322972598  1.0000
  Zn  Zn2       1.0  0.07883990015462627  0.42078218843710125  0.3908703874345872  1.0000
  C   C31       1.0  0.9881870218425512  0.41462499801831987  0.6558815491150447  1.0000
  C   C32       1.0  0.9899441833343579  0.429085718052052  0.1286137815890811  1.0000
  C   C33       1.0  0.989069601516282  0.6590727192359911  0.3864058731748121  1.0000
  C   C34       1.0  0.9890615422272976  0.18463643678922992  0.3980895360175424  1.0000
  O   O2        1.0  0.05790170849449638  0.429583165999583  0.1813465679575046  1.0000
  O   O3        1.0  0.056504215044395505  0.4124987768414456  0.6010577876885616  1.0000
  O   O4        1.0  0.057215985743176205  0.6098934024516696  0.3834542863600566  1.0000
  O   O5        1.0  0.05718987688798949  0.23218855125495755  0.3989499619948418  1.0000
  O   O6        1.0  0.9209393068997735  0.6115205515869409  0.3855452586693689  1.0000
  O   O7        1.0  0.9202275363625547  0.4141274867552302  0.6031486824420093  1.0000
  O   O8        1.0  0.9216250356626219  0.4312118441983713  0.18343572730098323  1.0000
  O   O9        1.0  0.9209132036920737  0.23381721932150934  0.40103922956185256  1.0000
