data_image0
_chemical_formula_structural       NC9NC3NH7C6SCNH4C6OCH7Zn2C4O8
_chemical_formula_sum              "N4 C30 H18 S1 O9 Zn2"
_cell_length_a       16.053384444249904
_cell_length_b       10.302215558581763
_cell_length_c       9.273891588657152
_cell_angle_alpha    86.08259887656699
_cell_angle_beta     89.48625385378584
_cell_angle_gamma    89.19414689339631

_space_group_name_H-M_alt    "P 1"
_space_group_IT_number       1

loop_
  _space_group_symop_operation_xyz
  'x, y, z'

loop_
  _atom_site_type_symbol
  _atom_site_label
  _atom_site_symmetry_multiplicity
  _atom_site_fract_x
  _atom_site_fract_y
  _atom_site_fract_z
  _atom_site_occupancy
  N   N1        1.0  0.7898902953863022  0.39052322060703104  0.4069670521679689  1.0000
  C   C1        1.0  0.7394022673575122  0.3690352261682795  0.32389338676044543  1.0000
  C   C2        1.0  0.6766593200542627  0.34233634188450024  0.22069564231403005  1.0000
  C   C3        1.0  0.6907481568505307  0.3290717372487011  0.07559751718912167  1.0000
  C   C4        1.0  0.6143081125088757  0.3032755851333273  0.01759975612947007  1.0000
  C   C5        1.0  0.5568434956766439  0.3022370403454149  0.13044171292586326  1.0000
  C   C6        1.0  0.4662231667827459  0.2783286252775079  0.11906621119724692  1.0000
  C   C7        1.0  0.409995718357721  0.32188501598065034  0.22329582678721113  1.0000
  C   C8        1.0  0.3244779798516921  0.2992092360678207  0.21240027296115072  1.0000
  C   C9        1.0  0.2674622296525889  0.3445316186540399  0.31926260675381046  1.0000
  N   N2        1.0  0.2216382828015132  0.3809644093917636  0.40516318813908825  1.0000
  C   C10       1.0  0.2944615863580758  0.23286523550766478  0.09729030633091673  1.0000
  C   C11       1.0  0.3496797405734156  0.1894303543415594  0.9932956299655452  1.0000
  C   C12       1.0  0.4349929164980189  0.2119368416857945  0.0037510085454290905  1.0000
  N   N3        1.0  0.5956323814303722  0.3262186724784284  0.2542558654369764  1.0000
  H   H1        1.0  0.7496716636031298  0.3372346807515705  0.018311587353804226  1.0000
  H   H2        1.0  0.6024117823040294  0.2885848066721004  0.9053067105338632  1.0000
  H   H3        1.0  0.4320351882045041  0.3750563926483097  0.3118679664380115  1.0000
  H   H4        1.0  0.2284660867137456  0.21482649129670994  0.08792910555220845  1.0000
  H   H5        1.0  0.3263511318646469  0.13789817933401213  0.9044641455624923  1.0000
  H   H6        1.0  0.4763702662254919  0.17583510885208997  0.9224512499765045  1.0000
  H   H7        1.0  0.5691324749531239  0.3294301353520819  0.357206692766703  1.0000
  C   C13       1.0  0.005685646512205043  0.004473038956181784  0.40602575457977763  1.0000
  C   C14       1.0  0.08903293362481435  0.9989265134391896  0.4510324864487696  1.0000
  C   C15       1.0  0.13050865823675142  0.879129370108104  0.47388558576774  1.0000
  C   C16       1.0  0.08924907909941471  0.7637475160428969  0.4511536305045991  1.0000
  C   C17       1.0  0.005850815468222196  0.7670045342289992  0.4061168573155476  1.0000
  C   C18       1.0  0.9645175508182771  0.8878779582218457  0.38385608553031125  1.0000
  S   S1        1.0  0.2369954880004661  0.8735612926703129  0.5307445264371382  1.0000
  C   C19       1.0  0.20891520420640597  0.8628584582033616  0.7155662884459548  1.0000
  N   N4        1.0  0.19048074512304103  0.855842790553216  0.836732868938197  1.0000
  H   H8        1.0  0.12205176757967372  0.08731485306494347  0.46877987795552234  1.0000
  H   H9        1.0  0.12241607152120924  0.6718515063186526  0.46898413397019234  1.0000
  H   H10       1.0  0.9002366570164297  0.8913061673726983  0.3491653148223206  1.0000
  H   H11       1.0  0.8486813182445347  0.5659345778970662  0.3210793391112108  1.0000
  C   C20       1.0  0.007132286526890355  0.382269987207432  0.9827898795599834  1.0000
  C   C21       1.0  0.07536907127166081  0.4355989310118913  0.05108508557786262  1.0000
  C   C22       1.0  0.1388824200970329  0.498727570106787  0.9710177480698149  1.0000
  C   C23       1.0  0.13438612126095895  0.5088475735435809  0.819597127876512  1.0000
  C   C24       1.0  0.06789941657688248  0.4546937281040547  0.7499523173278528  1.0000
  C   C25       1.0  0.004404183978174329  0.38920756779263443  0.8293527466621455  1.0000
  O   O1        1.0  0.20484371283964897  0.5505083164262881  0.04595517649141567  1.0000
  C   C26       1.0  0.2734617714856802  0.6173192144281063  0.9786003427768525  1.0000
  H   H12       1.0  0.8089567885247613  0.3069131390115778  0.09462550736190622  1.0000
  H   H13       1.0  0.1823874836699264  0.5573637809695133  0.7544804093888939  1.0000
  H   H14       1.0  0.06722865762968389  0.46140013828934223  0.6328747494982783  1.0000
  H   H15       1.0  0.872246200664456  0.33329799990363473  0.5544551790740013  1.0000
  H   H16       1.0  0.2511180265901265  0.7056749368432189  0.9143086992330911  1.0000
  H   H17       1.0  0.3081843917261551  0.5521131167871616  0.9080348413950894  1.0000
  H   H18       1.0  0.3161138594523649  0.6474090428598611  0.06326942149795789  1.0000
  Zn  Zn1       1.0  0.9144834084650567  0.38776135968877157  0.40645481186367105  1.0000
  Zn  Zn2       1.0  0.09704510600739935  0.38371578917644555  0.4056872079354519  1.0000
  C   C27       1.0  0.004916888581899759  0.38272394893643186  0.6693336456022387  1.0000
  C   C28       1.0  0.006613619357609626  0.38875479510848693  0.14280850748551832  1.0000
  C   C29       1.0  0.005833838970266126  0.6228228966819354  0.40035576091771685  1.0000
  C   C30       1.0  0.005696606088110513  0.148654289472262  0.4117864690934967  1.0000
  O   O2        1.0  0.07572076147943152  0.3893902186706912  0.19622091843817624  1.0000
  O   O3        1.0  0.07436985182951977  0.37901704809278725  0.6153382259803404  1.0000
  O   O4        1.0  0.07510936209075325  0.5729000178417665  0.39813668512272926  1.0000
  O   O5        1.0  0.07498118927254938  0.19550725870433228  0.4134223514826625  1.0000
  O   O6        1.0  0.9365472629005834  0.5759698915427913  0.3987196685708245  1.0000
  O   O7        1.0  0.9358077532211598  0.38208848106643883  0.6159211327593428  1.0000
  O   O8        1.0  0.9371586685013388  0.3924615921967798  0.19680209221256173  1.0000
  O   O9        1.0  0.9364190959407828  0.19857862382970667  0.4140036333245374  1.0000
