data_image0
_chemical_formula_structural       NC9NC5H8C8H6C8NH7Zn2C4O8
_chemical_formula_sum              "N3 C34 H21 Zn2 O8"
_cell_length_a       17.807436237873137
_cell_length_b       9.275140704573507
_cell_length_c       9.274266800404105
_cell_angle_alpha    86.12813201358244
_cell_angle_beta     88.95510806583813
_cell_angle_gamma    88.98377242316299

_space_group_name_H-M_alt    "P 1"
_space_group_IT_number       1

loop_
  _space_group_symop_operation_xyz
  'x, y, z'

loop_
  _atom_site_type_symbol
  _atom_site_label
  _atom_site_symmetry_multiplicity
  _atom_site_fract_x
  _atom_site_fract_y
  _atom_site_fract_z
  _atom_site_occupancy
  N   N1        1.0  0.7221713950188532  0.5281783096749804  0.4018658930145218  1.0000
  C   C1        1.0  0.6614231692108762  0.48902330697576996  0.3895383862207018  1.0000
  C   C2        1.0  0.5858590532116398  0.440318795447519  0.37420430641511615  1.0000
  C   C3        1.0  0.5678121945760742  0.36015441331348197  0.25746061412702304  1.0000
  C   C4        1.0  0.4944430477055616  0.31274161906192544  0.24248020318895525  1.0000
  C   C5        1.0  0.4380699319842496  0.3450738653489815  0.3442064935426141  1.0000
  C   C6        1.0  0.3600977600591219  0.29481453341951536  0.32837759895161867  1.0000
  C   C7        1.0  0.2982932846148146  0.3857859920835158  0.35738113818858896  1.0000
  C   C8        1.0  0.22478055899233448  0.3381479375170817  0.342415394039429  1.0000
  C   C9        1.0  0.1619404337971033  0.4321099455359072  0.3718297876334391  1.0000
  N   N2        1.0  0.11142992980181526  0.5076489086050242  0.3954781386598383  1.0000
  C   C10       1.0  0.2124873370545733  0.19925184571920762  0.29841730959144375  1.0000
  C   C11       1.0  0.2734343975882659  0.10826493943046955  0.2694044216930236  1.0000
  C   C12       1.0  0.3468262436446379  0.1554633242589274  0.28414432274308354  1.0000
  C   C13       1.0  0.45681016394230556  0.4257888672711045  0.46119481319969435  1.0000
  C   C14       1.0  0.5302317433826248  0.47298899724364635  0.4760019527491101  1.0000
  H   H1        1.0  0.6103945370203291  0.3345860287869029  0.17779668143871818  1.0000
  H   H2        1.0  0.4815818898305757  0.2524486285747476  0.1502949822507691  1.0000
  H   H3        1.0  0.3072432558868253  0.49421940378488727  0.389686444062038  1.0000
  H   H4        1.0  0.1558665816799295  0.16138110162029198  0.2865690234407017  1.0000
  H   H5        1.0  0.263796364167275  0.0007316558113235051  0.23576867409632782  1.0000
  H   H6        1.0  0.3931599069859082  0.08232312109725681  0.2628307824321068  1.0000
  H   H7        1.0  0.41493567562486955  0.4507698946869847  0.5422943511470828  1.0000
  H   H8        1.0  0.5436332126604102  0.5346280129416048  0.5670340202903781  1.0000
  C   C15       1.0  0.9145266577585519  0.09458526153377676  0.3977012433357108  1.0000
  C   C16       1.0  0.9257833863243239  0.1764482442402724  0.26602134893160834  1.0000
  C   C17       1.0  0.9435694256737387  0.10924909874113166  0.13940084080649928  1.0000
  C   C18       1.0  0.9505218109019099  0.9589730487181714  0.14202717185703095  1.0000
  C   C19       1.0  0.9383126698827684  0.8755617559375956  0.27136018017918206  1.0000
  C   C20       1.0  0.9190817118030883  0.9412306183953911  0.39965519599872246  1.0000
  C   C21       1.0  0.9693488761004155  0.8899379142894634  0.011360295042579075  1.0000
  C   C22       1.0  0.9851124454000597  0.8321229540048141  0.901964075795915  1.0000
  H   H9        1.0  0.925380390160519  0.17317197330686174  0.7517225240495602  1.0000
  H   H10       1.0  0.9225714928530796  0.29340943056706137  0.2616587466130351  1.0000
  H   H11       1.0  0.9526343505475483  0.17476529277487862  0.03959824064838591  1.0000
  H   H12       1.0  0.9420997070691686  0.7587534630696208  0.27111996226709345  1.0000
  H   H13       1.0  0.9235059748214189  0.6442590615983844  0.6382278145259954  1.0000
  H   H14       1.0  0.9989494780234973  0.7813718696148297  0.8059371699837525  1.0000
  C   C23       1.0  0.9185147424925236  0.5146649215882757  0.9753318531284626  1.0000
  C   C24       1.0  0.8743117891538413  0.41376987664059484  0.056959429788054024  1.0000
  C   C25       1.0  0.825624104918869  0.3243259683558793  0.9896409610762169  1.0000
  C   C26       1.0  0.8195254076127059  0.3344484980604807  0.8390666550718109  1.0000
  C   C27       1.0  0.8647409436604628  0.4318427378009513  0.7561079528096633  1.0000
  C   C28       1.0  0.9150936239085905  0.5211509537486101  0.8220245130354953  1.0000
  C   C29       1.0  0.7678246568827191  0.2364604326777051  0.7665920063642737  1.0000
  C   C30       1.0  0.8077886664902295  0.10252325303261767  0.7344053220871167  1.0000
  N   N3        1.0  0.8393350101792871  0.9968156074156119  0.7089996945160695  1.0000
  H   H15       1.0  0.0029622515775922175  0.8275718234152105  0.05414157682870879  1.0000
  H   H16       1.0  0.8761892580203063  0.4062027713228644  0.17392475434481347  1.0000
  H   H17       1.0  0.7920569203542267  0.24792306907263842  0.05524851166929845  1.0000
  H   H18       1.0  0.8618335821094822  0.435286219392262  0.639272547895934  1.0000
  H   H19       1.0  0.974663449559183  0.7288774067239965  0.52521211218887  1.0000
  H   H20       1.0  0.7466846057927902  0.29037474966949617  0.6642963540543518  1.0000
  H   H21       1.0  0.7184036346987629  0.20943908810522816  0.8374935972079744  1.0000
  Zn  Zn1       1.0  0.8345029441341067  0.5222501853077857  0.4000308537220174  1.0000
  Zn  Zn2       1.0  0.9990982513802344  0.5135653728667939  0.39732500262426274  1.0000
  C   C31       1.0  0.9157077319127188  0.5141821431668003  0.661968273642698  1.0000
  C   C32       1.0  0.9178952701915056  0.521635140159038  0.13538769885023716  1.0000
  C   C33       1.0  0.9182400707837846  0.7811528179214258  0.3935410861284776  1.0000
  C   C34       1.0  0.915362865526757  0.2546627369851615  0.40381496015042884  1.0000
  O   O1        1.0  0.9801503970963187  0.5206722790224894  0.18807703189853675  1.0000
  O   O2        1.0  0.9783766305573776  0.5085523419200872  0.6072248447151116  1.0000
  O   O3        1.0  0.9804206781327726  0.7241345940020851  0.3904680089324788  1.0000
  O   O4        1.0  0.9781062938479299  0.30509003938835133  0.4048337605355552  1.0000
  O   O5        1.0  0.85549484549815  0.7307255217514392  0.3925220967265193  1.0000
  O   O6        1.0  0.8534508075481768  0.5151450010539032  0.6092788596389758  1.0000
  O   O7        1.0  0.8552245808701282  0.5272648746409518  0.1901293134409432  1.0000
  O   O8        1.0  0.8531804771264717  0.3116826255241656  0.40688615013937146  1.0000
