data_image0
_chemical_formula_structural       NC12NC2H8C9H8C7F3H5Zn2C4O8
_chemical_formula_sum              "N2 C34 H21 F3 Zn2 O8"
_cell_length_a       19.240039667572717
_cell_length_b       9.275152443626249
_cell_length_c       10.299327507215196
_cell_angle_alpha    85.35552067985554
_cell_angle_beta     89.98118748846025
_cell_angle_gamma    90.57354334366605

_space_group_name_H-M_alt    "P 1"
_space_group_IT_number       1

loop_
  _space_group_symop_operation_xyz
  'x, y, z'

loop_
  _atom_site_type_symbol
  _atom_site_label
  _atom_site_symmetry_multiplicity
  _atom_site_fract_x
  _atom_site_fract_y
  _atom_site_fract_z
  _atom_site_occupancy
  N   N1        1.0  0.6623494657218102  0.5790142258683331  0.5625372461818146  1.0000
  C   C1        1.0  0.6022010973692173  0.579014319169812  0.5625371639546439  1.0000
  C   C2        1.0  0.527383060881062  0.5790144494756111  0.5625370262438771  1.0000
  C   C3        1.0  0.49054549210891185  0.5073881332196133  0.6661731249371754  1.0000
  C   C4        1.0  0.4178741342971233  0.5072649498905153  0.6662600495699387  1.0000
  C   C5        1.0  0.38105082648016897  0.5790145523362364  0.5625367982377898  1.0000
  C   C6        1.0  0.41860319801851054  0.6507643624581371  0.45881374081277304  1.0000
  C   C7        1.0  0.4912732754863092  0.6506409175114247  0.4589007887561669  1.0000
  C   C8        1.0  0.3038457356356873  0.5790144649735339  0.5625367030882626  1.0000
  C   C9        1.0  0.2660433456775991  0.4531952491896653  0.6047962760518644  1.0000
  C   C10       1.0  0.1933732465072119  0.45331401110851816  0.6047045818935606  1.0000
  C   C11       1.0  0.1575134480092434  0.5790143214757133  0.5625367644424528  1.0000
  C   C12       1.0  0.08269541020061498  0.5790141950869359  0.5625370135005829  1.0000
  N   N2        1.0  0.022547093092863596  0.5790141497049963  0.5625372220664786  1.0000
  C   C13       1.0  0.19460116078373582  0.7047147160824394  0.5203688938394404  1.0000
  C   C14       1.0  0.26727244720969506  0.7048336781099966  0.5202770364650109  1.0000
  H   H1        1.0  0.5179785341017191  0.4519333695936354  0.7470878022444531  1.0000
  H   H2        1.0  0.3905030851253206  0.4526965309785797  0.7482875404852825  1.0000
  H   H3        1.0  0.3917877165561902  0.7053328114288296  0.3767861989547754  1.0000
  H   H4        1.0  0.519270004370385  0.7060955697183495  0.3779863875964191  1.0000
  H   H5        1.0  0.292653157591816  0.3541545378546182  0.6362699028238521  1.0000
  H   H6        1.0  0.16517957936545488  0.3552719563966927  0.637208133664585  1.0000
  H   H7        1.0  0.1673650043435926  0.8027567435358387  0.4878653567032678  1.0000
  H   H8        1.0  0.29484911454505697  0.8038744774033835  0.48880336464916097  1.0000
  C   C15       1.0  0.8404010759060964  0.15538170555631203  0.5638631456134224  1.0000
  C   C16       1.0  0.8153477143266149  0.23813805777596797  0.45352755067272454  1.0000
  C   C17       1.0  0.7967553377519598  0.17271398068213806  0.3411261970034365  1.0000
  C   C18       1.0  0.8029244682991343  0.023372699908939417  0.33683492463321096  1.0000
  C   C19       1.0  0.8266188709702886  0.9389283442778117  0.4462380410402407  1.0000
  C   C20       1.0  0.8445021064547317  0.002635629324384099  0.5612225208913868  1.0000
  C   C21       1.0  0.7841144616514452  0.956241073766452  0.22043625373780104  1.0000
  C   C22       1.0  0.768365478111908  0.9000006935322122  0.12297061688014144  1.0000
  C   C23       1.0  0.749257199986838  0.8317509401110111  0.004713160098867912  1.0000
  H   H9        1.0  0.9402255848191892  0.23699329668769134  0.8232396196320309  1.0000
  H   H10       1.0  0.8116865780897449  0.3546556069825472  0.4531190246622077  1.0000
  H   H11       1.0  0.7781874230858106  0.23896666862643334  0.2570122519660849  1.0000
  H   H12       1.0  0.8295458189618847  0.8226188705151043  0.44261499508454616  1.0000
  H   H13       1.0  0.9094824217574053  0.7073089695624689  0.7386273213154486  1.0000
  H   H14       1.0  0.7619609782865419  0.7150272455279325  0.016846323210202744  1.0000
  H   H15       1.0  0.6926909427155786  0.8443362438893971  0.9869333132847968  1.0000
  H   H16       1.0  0.7786235998069425  0.8841123835283542  0.9206466311462806  1.0000
  C   C24       1.0  0.8425184299857783  0.5790672455781145  0.18116108544214327  1.0000
  C   C25       1.0  0.9103399758390388  0.6369105672527637  0.17571032503560446  1.0000
  C   C26       1.0  0.9440576067627514  0.6685388200637334  0.055656751793057076  1.0000
  C   C27       1.0  0.9101644657497397  0.6367575900685496  0.9404733441828309  1.0000
  C   C28       1.0  0.8423847691530807  0.5789500787812498  0.9439246269286334  1.0000
  C   C29       1.0  0.8088541944185907  0.5509749600527445  0.06473938130919454  1.0000
  C   C30       1.0  0.01779451135666687  0.7257449301476078  0.051216113598343105  1.0000
  F   F1        1.0  0.030342806391586936  0.8099879469434494  0.1538447187763905  1.0000
  F   F2        1.0  0.06314712914621089  0.6107258978543233  0.0594435375487854  1.0000
  F   F3        1.0  0.030151774048944535  0.8099683741681706  0.9362013761425594  1.0000
  H   H17       1.0  0.714991038900035  0.4674982261625505  0.3988609200625037  1.0000
  H   H18       1.0  0.9370921815856824  0.6572006685508511  0.26504361392590403  1.0000
  H   H19       1.0  0.93679626792406  0.6569388793870987  0.8480304093110674  1.0000
  H   H20       1.0  0.7565803494228769  0.506395455381103  0.068135596269981  1.0000
  H   H21       1.0  0.8167689183958106  0.554358022508302  0.6179697466641794  1.0000
  Zn  Zn1       1.0  0.76629470950071  0.579010351298705  0.5625447399043828  1.0000
  Zn  Zn2       1.0  0.9186018092685126  0.5790062551889577  0.5625403642758615  1.0000
  C   C31       1.0  0.842380646454555  0.5732251768349184  0.7997638852923876  1.0000
  C   C32       1.0  0.8425175442916286  0.5847932498010008  0.325321340637859  1.0000
  C   C33       1.0  0.8437242494239423  0.8424873697266362  0.5565463355529892  1.0000
  C   C34       1.0  0.841173880948924  0.31552932368362163  0.5685389650215389  1.0000
  O   O1        1.0  0.9003169671878573  0.5867071010506844  0.37370119828852233  1.0000
  O   O2        1.0  0.9001787829334563  0.5713071284941069  0.7513803361741263  1.0000
  O   O3        1.0  0.9012629799184526  0.7887397543528432  0.5549804393024498  1.0000
  O   O4        1.0  0.899232718297783  0.3692744855280783  0.5701009977515805  1.0000
  O   O5        1.0  0.7856637484965103  0.7887421209625536  0.554984106423321  1.0000
  O   O6        1.0  0.7845795599099019  0.5713112283324477  0.751383928645373  1.0000
  O   O7        1.0  0.7847177442408594  0.5867111508576619  0.3737032294631517  1.0000
  O   O8        1.0  0.7836334952809336  0.36927852500189506  0.5701031263294856  1.0000
