data_image0
_chemical_formula_structural       NC6NC3H6C6ClH5C7OH5Zn2C4O8
_chemical_formula_sum              "N2 C26 H16 Cl1 O9 Zn2"
_cell_length_a       14.934028789175542
_cell_length_b       10.30297070629231
_cell_length_c       9.274074313596557
_cell_angle_alpha    86.12141784095925
_cell_angle_beta     90.20908406498742
_cell_angle_gamma    89.96080423122717

_space_group_name_H-M_alt    "P 1"
_space_group_IT_number       1

loop_
  _space_group_symop_operation_xyz
  'x, y, z'

loop_
  _atom_site_type_symbol
  _atom_site_label
  _atom_site_symmetry_multiplicity
  _atom_site_fract_x
  _atom_site_fract_y
  _atom_site_fract_z
  _atom_site_occupancy
  N   N1        1.0  0.839131303324142  0.4060238013534334  0.40970516286625425  1.0000
  C   C1        1.0  0.7616435327986597  0.40502919898254724  0.40902641630884085  1.0000
  C   C2        1.0  0.6652448335230411  0.4037873423147018  0.408179127483151  1.0000
  C   C3        1.0  0.6176503927494728  0.5005030244913762  0.4740595582451206  1.0000
  C   C4        1.0  0.5241369339529308  0.4995059090240071  0.47338021786038054  1.0000
  C   C5        1.0  0.47730545318951295  0.40184246983817934  0.40685426782098655  1.0000
  C   C6        1.0  0.3806633315808485  0.40393794897331614  0.40828294359634243  1.0000
  N   N2        1.0  0.3031861065904466  0.40560097875620293  0.40941710624280897  1.0000
  C   C7        1.0  0.5248919959005416  0.30378874245431575  0.34006184088162805  1.0000
  C   C8        1.0  0.47639117792551033  0.1976082939562953  0.26773553530323024  1.0000
  C   C9        1.0  0.6190382912899927  0.30580331766835256  0.341434173846755  1.0000
  H   H1        1.0  0.6528271346959376  0.5767060159288155  0.5259678159393217  1.0000
  H   H2        1.0  0.48823271016963676  0.5751220256648661  0.5248885670308356  1.0000
  H   H3        1.0  0.43341629166509876  0.24100110596399515  0.1791425210428761  1.0000
  H   H4        1.0  0.4338504606898971  0.1417390598385857  0.3478365340280143  1.0000
  H   H5        1.0  0.5237304477284016  0.1288336235838159  0.22088144178074853  1.0000
  H   H6        1.0  0.6564373243428986  0.23119312330463804  0.29061132453535143  1.0000
  C   C10       1.0  0.0711630082274945  0.024564982935058936  0.409567339749056  1.0000
  C   C11       1.0  0.16369486753269225  0.021582904036868255  0.4372705582088179  1.0000
  C   C12       1.0  0.2096067061504365  0.9031464312805828  0.45101605505131676  1.0000
  C   C13       1.0  0.16369486664612332  0.7864749347688194  0.43727049042594546  1.0000
  C   C14       1.0  0.07116301799258525  0.7870499254678829  0.4095674222481951  1.0000
  C   C15       1.0  0.025348139292613366  0.9066880978889902  0.3958508220570194  1.0000
  Cl  Cl1       1.0  0.3252010444427168  0.9009246203022954  0.4856238759835321  1.0000
  H   H7        1.0  0.03630787542064984  0.35299139102301363  0.3991312156455613  1.0000
  H   H8        1.0  0.20049703645344275  0.11092212220186662  0.4482886777207904  1.0000
  H   H9        1.0  0.2004970007802007  0.6957209284912685  0.44828857419254864  1.0000
  H   H10       1.0  0.953984761261606  0.9080596401064609  0.3744852228428941  1.0000
  H   H11       1.0  0.036307871743204816  0.4599634267546579  0.39913148776341645  1.0000
  C   C16       1.0  0.07009088216922253  0.4020692104890444  0.9863268431756355  1.0000
  C   C17       1.0  0.9920171904781939  0.44046911982368697  0.056264163220104635  1.0000
  C   C18       1.0  0.9183528920193408  0.48929870927599284  0.9771276617982859  1.0000
  C   C19       1.0  0.92103914101204  0.5010269748693857  0.8258459930327606  1.0000
  C   C20       1.0  0.9979038208952546  0.4610607638220241  0.7547695375114465  1.0000
  C   C21       1.0  0.07223513245328345  0.4095456217312062  0.8328079183371027  1.0000
  C   C22       1.0  0.844015142258267  0.5534298573857466  0.7405031018509289  1.0000
  O   O1        1.0  0.7738465712541798  0.5896668488265185  0.8012529388794514  1.0000
  H   H12       1.0  0.28887814411625745  0.3687930298112212  0.09297959552501323  1.0000
  H   H13       1.0  0.8596008564832567  0.5190725939847529  0.0345657872554237  1.0000
  H   H14       1.0  0.9989414083423029  0.4673514233642047  0.6376122306676946  1.0000
  H   H15       1.0  0.21930114616698246  0.3824279888394271  0.555250798444133  1.0000
  H   H16       1.0  0.8471947889486902  0.5613073204194023  0.6236316109669078  1.0000
  Zn  Zn1       1.0  0.9730475299919954  0.40589837835770043  0.40963035257143976  1.0000
  Zn  Zn2       1.0  0.16926993983713523  0.4057158710855906  0.4095037000015245  1.0000
  C   C23       1.0  0.07182784879678267  0.4029604231492297  0.6728048286446351  1.0000
  C   C24       1.0  0.07049176413336951  0.4086554636481867  0.1463293640067136  1.0000
  C   C25       1.0  0.0711438735092857  0.6428732876372079  0.40382399847037176  1.0000
  C   C26       1.0  0.0711756726584649  0.16874104009557267  0.41531027106467233  1.0000
  O   O2        1.0  0.14509168569697373  0.4107909458791499  0.19997960764824807  1.0000
  O   O3        1.0  0.14615619497710897  0.4006854390467352  0.6190580437413642  1.0000
  O   O4        1.0  0.14560287624975832  0.5944181254033243  0.4018541209396358  1.0000
  O   O5        1.0  0.14564493719315885  0.21705826791762317  0.41718342242748047  1.0000
  O   O6        1.0  0.9966724656748747  0.5945559815892953  0.4019506301811231  1.0000
  O   O7        1.0  0.9972257842035293  0.400824854360969  0.6191544761347956  1.0000
  O   O8        1.0  0.9961612705933888  0.4109303006467351  0.20007430721025266  1.0000
  O   O9        1.0  0.9967145223596421  0.21719761435377305  0.41727823004762077  1.0000
