data_image0
_chemical_formula_structural       NC6NC2H4C6ClH5C7OH5Zn2C4O8
_chemical_formula_sum              "N2 C25 H14 Cl1 O9 Zn2"
_cell_length_a       14.927258858638513
_cell_length_b       10.302970706292308
_cell_length_c       9.274074313596556
_cell_angle_alpha    86.12141784095925
_cell_angle_beta     90.23360497227152
_cell_angle_gamma    89.9983139300619

_space_group_name_H-M_alt    "P 1"
_space_group_IT_number       1

loop_
  _space_group_symop_operation_xyz
  'x, y, z'

loop_
  _atom_site_type_symbol
  _atom_site_label
  _atom_site_symmetry_multiplicity
  _atom_site_fract_x
  _atom_site_fract_y
  _atom_site_fract_z
  _atom_site_occupancy
  N   N1        1.0  0.8395129347324269  0.4067883676851991  0.41022600686450006  1.0000
  C   C1        1.0  0.7619864435920937  0.4067883421124696  0.4102260174508421  1.0000
  C   C2        1.0  0.6655539359194402  0.4067884452909367  0.4102259676016897  1.0000
  C   C3        1.0  0.6181811716094117  0.3843414477771169  0.2835641443925192  1.0000
  C   C4        1.0  0.5244698599274319  0.38434146967735416  0.2835640109603479  1.0000
  C   C5        1.0  0.47773787197815926  0.40678828561342945  0.4102259862252653  1.0000
  C   C6        1.0  0.3813052973139546  0.4067883887945132  0.4102259363701901  1.0000
  N   N2        1.0  0.3037788061736219  0.4067883632217839  0.41022594695653236  1.0000
  C   C7        1.0  0.5251105692966371  0.4292352831298658  0.5368878094285132  1.0000
  C   C8        1.0  0.6188218809786169  0.4292352612296284  0.5368879428606843  1.0000
  H   H1        1.0  0.6536280868463515  0.3668764169978844  0.18501397646462614  1.0000
  H   H2        1.0  0.4885244313191508  0.36687659479045154  0.1850139715327006  1.0000
  H   H3        1.0  0.48966372132143854  0.4467003055752935  0.6354380854206321  1.0000
  H   H4        1.0  0.6547673098615514  0.4467002247101481  0.6354380922972673  1.0000
  C   C9        1.0  0.07165016613199976  0.02554096269970274  0.41023220449878983  1.0000
  C   C10       1.0  0.1642241083193856  0.022643193305829538  0.43799285695413115  1.0000
  C   C11       1.0  0.21015682733994534  0.9042485526750974  0.4517668510121405  1.0000
  C   C12       1.0  0.1642241074324132  0.7875352240369726  0.4379927891707087  1.0000
  C   C13       1.0  0.07165017590153179  0.7880259052414238  0.4102322870039903  1.0000
  C   C14       1.0  0.025814460895478012  0.9076223338810645  0.39648724977977  1.0000
  Cl  Cl1       1.0  0.3258037371784632  0.9021320643547195  0.48644642068867333  1.0000
  H   H5        1.0  0.036779181439560604  0.3539356128721467  0.39977444601381196  1.0000
  H   H6        1.0  0.20104301462497354  0.11201594340937081  0.44903381936176134  1.0000
  H   H7        1.0  0.20104297893550732  0.6968147496662697  0.449033715811377  1.0000
  H   H8        1.0  0.954418627268607  0.908928854050201  0.37507735572526046  1.0000
  H   H9        1.0  0.03677917776044318  0.46090764860044037  0.3997747181293845  1.0000
  C   C15       1.0  0.07057755247783434  0.4030442133964497  0.9869910424628601  1.0000
  C   C16       1.0  0.992468353384339  0.44137298664568214  0.056879902613654394  1.0000
  C   C17       1.0  0.9187705528861151  0.49013545758836746  0.9776976781833083  1.0000
  C   C18       1.0  0.9214580235672228  0.5018661707314234  0.8264176767571612  1.0000
  C   C19       1.0  0.9983576610022709  0.4619699941901132  0.7553889307028117  1.0000
  C   C20       1.0  0.07272277795284877  0.41052257835141837  0.833473448548208  1.0000
  C   C21       1.0  0.8443989948044397  0.5541988735798922  0.7410269772200548  1.0000
  O   O1        1.0  0.7741985115948801  0.5903719316091407  0.8017332610180774  1.0000
  H   H10       1.0  0.28946431743537704  0.3699673786060236  0.09377959481377074  1.0000
  H   H11       1.0  0.8599917973099459  0.5198558109509419  0.03509933658818377  1.0000
  H   H12       1.0  0.9993957203372787  0.46826159912001203  0.6382322678836503  1.0000
  H   H13       1.0  0.21985567632417202  0.38353894322874554  0.5560076116884014  1.0000
  H   H14       1.0  0.8475800875773046  0.562079233717728  0.6241574599245392  1.0000
  Zn  Zn1       1.0  0.9734900656210779  0.40678496115790397  0.41023431760527473  1.0000
  Zn  Zn2       1.0  0.16980171613011497  0.4067812400274996  0.41022945916231524  1.0000
  C   C22       1.0  0.07231530906641465  0.4039370086768965  0.673470106057106  1.0000
  C   C23       1.0  0.07097861676046713  0.4096308318152979  0.14699381211907925  1.0000
  C   C24       1.0  0.07163102271144654  0.6438492499674389  0.4044888513432956  1.0000
  C   C25       1.0  0.07166283632267034  0.16971703139928973  0.41597514367514576  1.0000
  O   O2        1.0  0.14561246587868837  0.41183428503977976  0.2006903595050482  1.0000
  O   O3        1.0  0.146677459290656  0.4017297481246502  0.619769456332983  1.0000
  O   O4        1.0  0.14612388891758055  0.5954619303302582  0.40256519008948666  1.0000
  O   O5        1.0  0.1461659689900221  0.21810211116797704  0.4178945176843183  1.0000
  O   O6        1.0  0.9971257457696194  0.5954640900200425  0.40256925907734864  1.0000
  O   O7        1.0  0.9976793159439086  0.4017334669425167  0.619773448472666  1.0000
  O   O8        1.0  0.9966143181999672  0.411837943307052  0.20069261881061617  1.0000
  O   O9        1.0  0.9971678215814914  0.21810576110406044  0.41789688504819006  1.0000
