data_image0
_chemical_formula_structural       NC10NC4H10C7ONH7C6NO2H5Zn2C4O8
_chemical_formula_sum              "N4 C31 H22 O11 Zn2"
_cell_length_a       19.28451875052605
_cell_length_b       10.297852080636378
_cell_length_c       10.29948882739461
_cell_angle_alpha    85.56022623472282
_cell_angle_beta     89.86482730390217
_cell_angle_gamma    90.07813772290764

_space_group_name_H-M_alt    "P 1"
_space_group_IT_number       1

loop_
  _space_group_symop_operation_xyz
  'x, y, z'

loop_
  _atom_site_type_symbol
  _atom_site_label
  _atom_site_symmetry_multiplicity
  _atom_site_fract_x
  _atom_site_fract_y
  _atom_site_fract_z
  _atom_site_occupancy
  N   N1        1.0  0.6526691052341239  0.4239287279806387  0.5644154645297762  1.0000
  C   C1        1.0  0.5926772093413124  0.422424701139079  0.567094904908269  1.0000
  C   C2        1.0  0.5179991610034003  0.4205928648144536  0.5704756634752428  1.0000
  C   C3        1.0  0.48261953239839955  0.355094464661907  0.4847984366224639  1.0000
  C   C4        1.0  0.4061231930998773  0.35286235139136035  0.48664334806293785  1.0000
  C   C5        1.0  0.36986464178340644  0.43201917822607117  0.5597060180607751  1.0000
  C   C6        1.0  0.2927285773379434  0.4302392612704893  0.5595907930559594  1.0000
  C   C7        1.0  0.2560452075259569  0.31194053510023845  0.5589159246019353  1.0000
  C   C8        1.0  0.1835468815690742  0.31079846745263495  0.5596451213261509  1.0000
  C   C9        1.0  0.1466886600578666  0.42759371741467556  0.56135572572743  1.0000
  C   C10       1.0  0.0720452152134011  0.426289709612355  0.5621139515533817  1.0000
  N   N2        1.0  0.0120373637023811  0.4252415730622923  0.562723606354949  1.0000
  C   C11       1.0  0.1826050216248195  0.5456378539295483  0.56260093377639  1.0000
  C   C12       1.0  0.2551044861199991  0.5470424637218925  0.5619632001036317  1.0000
  C   C13       1.0  0.4084453940410457  0.5327660346250314  0.6317264225574877  1.0000
  C   C14       1.0  0.4801345872224462  0.4832286979498892  0.6775064725495198  1.0000
  H   H1        1.0  0.5096873634250574  0.3031555697515147  0.41243113715878454  1.0000
  H   H2        1.0  0.3798647244362212  0.2874374420493597  0.4255582010823728  1.0000
  H   H3        1.0  0.2833763053697253  0.22011867648915648  0.559656751690569  1.0000
  H   H4        1.0  0.1562651334681618  0.21877450939013568  0.5593341470698472  1.0000
  H   H5        1.0  0.1545838872333318  0.6366550630217158  0.5638972176233086  1.0000
  H   H6        1.0  0.2816656882403666  0.639731563326567  0.5618579927590364  1.0000
  H   H7        1.0  0.37810145833771786  0.5580828963712778  0.7180949889637086  1.0000
  H   H8        1.0  0.4149468239800531  0.6224274615918204  0.5654609232251693  1.0000
  H   H9        1.0  0.47349804078454494  0.40956403328251606  0.7613833163396897  1.0000
  H   H10       1.0  0.5108752200509417  0.5657295107675508  0.7108683215822973  1.0000
  C   C15       1.0  0.832430479848215  0.04314827586646987  0.5635769108140692  1.0000
  C   C16       1.0  0.8229398653223305  0.05265183425725129  0.427952397254274  1.0000
  C   C17       1.0  0.8175150882892727  0.9403755729407981  0.35929333279059533  1.0000
  C   C18       1.0  0.8227645604588121  0.8173989848901126  0.427908420330916  1.0000
  C   C19       1.0  0.8322826136753502  0.8060120326018507  0.563573288952686  1.0000
  C   C20       1.0  0.8368891968624673  0.919405172921018  0.6305526402706059  1.0000
  C   C21       1.0  0.8076630896428535  0.9530145153722812  0.21602844554569756  1.0000
  O   O1        1.0  0.8261888240406834  0.0561874132698883  0.15127045446950138  1.0000
  N   N3        1.0  0.7766827636649817  0.8510923293418796  0.14912372694996567  1.0000
  H   H11       1.0  0.8506188714998313  0.23246092177650057  0.8198372322895499  1.0000
  H   H12       1.0  0.8191408769785098  0.14776520959914707  0.37562094770836807  1.0000
  H   H13       1.0  0.8208029075476923  0.7301922464925472  0.37583104965343317  1.0000
  H   H14       1.0  0.8442020016681601  0.9113271069088956  0.7350801461806452  1.0000
  H   H15       1.0  0.8513826957469118  0.5772388512892912  0.8197109781813102  1.0000
  H   H16       1.0  0.7731887764697967  0.8601515781745547  0.04767111803285616  1.0000
  H   H17       1.0  0.7530019460758769  0.7708694500124448  0.19913657731917112  1.0000
  C   C22       1.0  0.8323552500684495  0.42458118970220315  0.18220354800802152  1.0000
  C   C23       1.0  0.7649696974764872  0.47625629403509584  0.1775172900903221  1.0000
  C   C24       1.0  0.7307992477738436  0.5024600373063375  0.05806817540879483  1.0000
  C   C25       1.0  0.764976180075376  0.476251223885548  0.9422480107228774  1.0000
  C   C26       1.0  0.8323578427698626  0.4245790831351479  0.9449467326543406  1.0000
  C   C27       1.0  0.8656646412284033  0.3990376261541433  0.06540441924968099  1.0000
  N   N4        1.0  0.661690249339633  0.5554566393659799  0.05467818955998105  1.0000
  O   O2        1.0  0.6282620762189443  0.5810914874893749  0.1680789018127553  1.0000
  O   O3        1.0  0.6309482710291477  0.5790313147025405  0.9489306108797331  1.0000
  H   H18       1.0  0.8580924304446345  0.40484441980978336  0.5114575955845675  1.0000
  H   H19       1.0  0.7389708136610252  0.4961937427508283  0.26706248156636514  1.0000
  H   H20       1.0  0.7389545932305366  0.49620610795226616  0.8498464516767353  1.0000
  H   H21       1.0  0.9176400946849536  0.359179874518061  0.0682602582520917  1.0000
  H   H22       1.0  0.85808350138699  0.4048510869823809  0.6185180499781748  1.0000
  Zn  Zn1       1.0  0.7563750288825101  0.4243041053056873  0.5639347223005526  1.0000
  Zn  Zn2       1.0  0.9083314511270844  0.42485555328282354  0.5632149580629218  1.0000
  C   C28       1.0  0.8323568290072932  0.4194049032805271  0.8007719417591241  1.0000
  C   C29       1.0  0.8323513100445293  0.4297564002409979  0.32637785820420606  1.0000
  C   C30       1.0  0.8323069974454552  0.6618145441908387  0.558398820207245  1.0000
  C   C31       1.0  0.8324010900569341  0.1873451985617209  0.5687510492481178  1.0000
  O   O4        1.0  0.8900166591489714  0.4316968530563931  0.37449092700409525  1.0000
  O   O5        1.0  0.8900228885428291  0.41788200682407944  0.7521122147130344  1.0000
  O   O6        1.0  0.8899818715567769  0.6136308547227348  0.5563942079057178  1.0000
  O   O7        1.0  0.890057624280455  0.23594801426170764  0.570208836681628  1.0000
  O   O8        1.0  0.7746488038738698  0.6132116441400355  0.5569408439206358  1.0000
  O   O9        1.0  0.7746898205540855  0.4174643568235769  0.752658781474709  1.0000
  O   O10       1.0  0.7746835912097575  0.4312791577962698  0.37503593235418564  1.0000
  O   O11       1.0  0.7747245563405402  0.2355303097108461  0.5707539394002913  1.0000
