data_image0
_chemical_formula_structural       NC9NC3NH7C8NH7C7F3H5Zn2C4O8
_chemical_formula_sum              "N4 C31 H19 F3 Zn2 O8"
_cell_length_a       16.053384444249904
_cell_length_b       9.274263428431858
_cell_length_c       9.272721663655247
_cell_angle_alpha    85.8307011284179
_cell_angle_beta     90.31938989593549
_cell_angle_gamma    89.79185309571561

_space_group_name_H-M_alt    "P 1"
_space_group_IT_number       1

loop_
  _space_group_symop_operation_xyz
  'x, y, z'

loop_
  _atom_site_type_symbol
  _atom_site_label
  _atom_site_symmetry_multiplicity
  _atom_site_fract_x
  _atom_site_fract_y
  _atom_site_fract_z
  _atom_site_occupancy
  N   N1        1.0  0.7857996582321682  0.5505010483195079  0.4050858836069755  1.0000
  C   C1        1.0  0.7344693082744779  0.5269398612690441  0.32200207202725584  1.0000
  C   C2        1.0  0.670679954608369  0.4976649506370501  0.21879172876075256  1.0000
  C   C3        1.0  0.6834599545702927  0.4834681278025208  0.07365317667037785  1.0000
  C   C4        1.0  0.6063596147238473  0.4550285197528898  0.01565843191791849  1.0000
  C   C5        1.0  0.5498368956597015  0.4534568445445429  0.12854245234967743  1.0000
  C   C6        1.0  0.4589609326210261  0.4269414175283224  0.11718517835306996  1.0000
  C   C7        1.0  0.4039013681453381  0.4749378962975357  0.2214119956117122  1.0000
  C   C8        1.0  0.3181402793040229  0.4497899076359784  0.2105336909641733  1.0000
  C   C9        1.0  0.2623263676525158  0.4997383041680359  0.3173925327719649  1.0000
  N   N2        1.0  0.2174685154175579  0.5398897624313785  0.4032903065000679  1.0000
  C   C10       1.0  0.2867120310573824  0.3765211626967685  0.09544388201486775  1.0000
  C   C11       1.0  0.3407650899157043  0.32865878684725125  0.9914519758432615  1.0000
  C   C12       1.0  0.4263167820907529  0.35362035534641234  0.0018901033532761047  1.0000
  N   N3        1.0  0.5898273613574678  0.47963704038637595  0.25237925366618796  1.0000
  H   H1        1.0  0.7419563865255425  0.4927477927734576  0.01633874815614922  1.0000
  H   H2        1.0  0.5934207505578954  0.43912596110767654  0.9033382398903665  1.0000
  H   H3        1.0  0.4270414019805182  0.5336727506164423  0.30996663882268494  1.0000
  H   H4        1.0  0.2205171113326106  0.35651832888871576  0.08609615046265096  1.0000
  H   H5        1.0  0.3163447050984678  0.27174572563440424  0.9026363597013423  1.0000
  H   H6        1.0  0.4667689391074218  0.31381959257532593  0.9205945180940027  1.0000
  H   H7        1.0  0.564214620386696  0.4828229365656154  0.3553645661651217  1.0000
  C   C13       1.0  0.999003863543434  0.121678325131799  0.4045054553548131  1.0000
  C   C14       1.0  0.987548887050268  0.2045925969211606  0.27277098026066415  1.0000
  C   C15       1.0  0.984269756025879  0.13904142102042116  0.1421954169895263  1.0000
  C   C16       1.0  0.9930415807601644  0.9890327238049654  0.14012175435945529  1.0000
  C   C17       1.0  0.0022565517013444242  0.9046640361893491  0.27098163655278973  1.0000
  C   C18       1.0  0.00427226412724635  0.9687013448967772  0.4038831783000345  1.0000
  C   C19       1.0  0.9882640302094188  0.918386156368506  0.9994504570365166  1.0000
  C   C20       1.0  0.9016743739151807  0.8814015444043409  0.9677631856275021  1.0000
  N   N4        1.0  0.8333310544496577  0.8522090842110641  0.9427626331825644  1.0000
  H   H8        1.0  0.0726221226152419  0.19996947398732123  0.7366439506076821  1.0000
  H   H9        1.0  0.9829320524386108  0.32131195802439394  0.27042851475007335  1.0000
  H   H10       1.0  0.9756638419822373  0.20562954746633766  0.042302197536215225  1.0000
  H   H11       1.0  0.0058431256756894525  0.7880758291661502  0.26906734520051145  1.0000
  H   H12       1.0  0.050605609252365014  0.6713130744194187  0.6294694858491072  1.0000
  H   H13       1.0  0.026776126660662754  0.8183549592918359  0.004870498671374122  1.0000
  H   H14       1.0  0.012393127548948836  0.9921109396849536  0.9096151325298019  1.0000
  C   C21       1.0  0.9994196712325677  0.542904806135139  0.9807619671900065  1.0000
  C   C22       1.0  0.03413609034289178  0.42406851263419876  0.063423511716584  1.0000
  C   C23       1.0  0.07620636413027215  0.3136313620046516  0.9974210427545857  1.0000
  C   C24       1.0  0.08099614714503778  0.32015588256215455  0.846246592626843  1.0000
  C   C25       1.0  0.04576740473639207  0.43600159461954663  0.7626210055865701  1.0000
  C   C26       1.0  0.0038564702350296657  0.5474748411433439  0.8276266235064331  1.0000
  C   C27       1.0  0.11106052248234266  0.18525214819996538  0.08771379189820938  1.0000
  F   F1        1.0  0.13937216423440346  0.2264788001495721  0.21979926394086213  1.0000
  F   F2        1.0  0.17708444305320503  0.12396595054746884  0.018361522453284037  1.0000
  F   F3        1.0  0.0492632879314574  0.082944567042462  0.11108013801495797  1.0000
  H   H15       1.0  0.9487575986635804  0.8876347951579537  0.056948667206032644  1.0000
  H   H16       1.0  0.029945182780072525  0.41904699782127897  0.18029020978441634  1.0000
  H   H17       1.0  0.111255877730984  0.23467839121435022  0.7922729134681465  1.0000
  H   H18       1.0  0.049339516022896435  0.4363751179475311  0.6459512024047309  1.0000
  H   H19       1.0  0.8558947867702913  0.7944010776362906  0.7067788260258197  1.0000
  Zn  Zn1       1.0  0.910369983247226  0.5474350590133725  0.4045760409337058  1.0000
  Zn  Zn2       1.0  0.0928981556027677  0.5429440656085476  0.4038119427617468  1.0000
  C   C28       1.0  0.0029802087009469496  0.5408655718621165  0.6675553164987682  1.0000
  C   C29       1.0  0.00028993541092159174  0.5495153241985056  0.1408327990413092  1.0000
  C   C30       1.0  0.0032420287007268716  0.8085650260381912  0.3982548310689631  1.0000
  C   C31       1.0  2.8042752301391027e-05  0.28181413922569865  0.4101333628802406  1.0000
  O   O1        1.0  0.06985045503949094  0.5500232739486544  0.19426406582417566  1.0000
  O   O2        1.0  0.07195433953394459  0.536947971792848  0.6135437026030364  1.0000
  O   O3        1.0  0.07216483657759998  0.753118697627523  0.3960816580801292  1.0000
  O   O4        1.0  0.06963989520908531  0.3338525593799806  0.4117260024855445  1.0000
  O   O5        1.0  0.9336281813529713  0.7565265667760244  0.39666198146307163  1.0000
  O   O6        1.0  0.9334176946802192  0.5403575732721659  0.614123947830016  1.0000
  O   O7        1.0  0.9313138008460348  0.5534328158137716  0.1948425774710809  1.0000
  O   O8        1.0  0.9311032415144426  0.3372620915131812  0.4123046222471518  1.0000
