data_image0
_chemical_formula_structural       NC9NC4H8C8NH7C6OCH6Zn2C4O8
_chemical_formula_sum              "N3 C32 H21 O9 Zn2"
_cell_length_a       16.32274767691083
_cell_length_b       9.274263428431858
_cell_length_c       9.273891588657152
_cell_angle_alpha    86.03948257069723
_cell_angle_beta     89.15205086511824
_cell_angle_gamma    90.1410557844374

_space_group_name_H-M_alt    "P 1"
_space_group_IT_number       1

loop_
  _space_group_symop_operation_xyz
  'x, y, z'

loop_
  _atom_site_type_symbol
  _atom_site_label
  _atom_site_symmetry_multiplicity
  _atom_site_fract_x
  _atom_site_fract_y
  _atom_site_fract_z
  _atom_site_occupancy
  N   N1        1.0  0.7860727734205324  0.5536265172349988  0.39697215223253113  1.0000
  C   C1        1.0  0.7336110938338528  0.5003933508285225  0.3367530199276858  1.0000
  C   C2        1.0  0.668400798530903  0.4342773435940437  0.2619603760657534  1.0000
  C   C3        1.0  0.6797392848219477  0.34384240075820377  0.15965258476110078  1.0000
  C   C4        1.0  0.6002690961621628  0.2997097048353768  0.109729786316761  1.0000
  C   C5        1.0  0.5414890934542531  0.36429696343028684  0.18279897068509388  1.0000
  C   C6        1.0  0.4515111525218053  0.3472271670762195  0.16349135830663508  1.0000
  C   C7        1.0  0.3960936166941241  0.422507713682399  0.24865000551260064  1.0000
  C   C8        1.0  0.3113505278648485  0.40791904270478874  0.2321484962223894  1.0000
  C   C9        1.0  0.2555265531683916  0.4855138440293314  0.31992422490991435  1.0000
  N   N2        1.0  0.21066299000819694  0.5478872919310556  0.39048104395937044  1.0000
  C   C10       1.0  0.28097164587572654  0.31792807966656134  0.13035130818548946  1.0000
  C   C11       1.0  0.3350674984207314  0.24274725108460385  0.04530583863402236  1.0000
  C   C12       1.0  0.4196508604798718  0.2569429691179926  0.06136269971333985  1.0000
  C   C13       1.0  0.5794662641717028  0.45847225678584125  0.2893352918667855  1.0000
  H   H1        1.0  0.7385635152344694  0.30867649325004254  0.11986740311614419  1.0000
  H   H2        1.0  0.5917987595704838  0.22579733690567008  0.026113550955772828  1.0000
  H   H3        1.0  0.4183724425670195  0.4927608323052868  0.32811999040805206  1.0000
  H   H4        1.0  0.21555142118000134  0.30591003932082206  0.1167577365754686  1.0000
  H   H5        1.0  0.31139413303052677  0.17313085298924924  0.9665563914290609  1.0000
  H   H6        1.0  0.4592896823444668  0.19680314960033485  0.9933322361354784  1.0000
  H   H7        1.0  0.5621033957727829  0.42090857849035546  0.4020260464977481  1.0000
  H   H8        1.0  0.5634707791439539  0.5738213076893719  0.26464210421359025  1.0000
  C   C14       1.0  0.9957782704914897  0.12721120209232395  0.3940724990264117  1.0000
  C   C15       1.0  0.98560063775708  0.20952066064558797  0.26249854732826194  1.0000
  C   C16       1.0  0.9834549185597831  0.14346125173934765  0.13199424904101328  1.0000
  C   C17       1.0  0.99209974300333  0.9935442055887432  0.1298257256592037  1.0000
  C   C18       1.0  8.141003345852261e-05  0.9097518601300909  0.26054969118678173  1.0000
  C   C19       1.0  0.0009652420161003785  0.9742915166223101  0.3933930782777688  1.0000
  C   C20       1.0  0.9885636932469425  0.9223360410668253  0.9892447460646423  1.0000
  C   C21       1.0  0.9036589061377559  0.884258504523544  0.9585080942975948  1.0000
  N   N3        1.0  0.8366453383417154  0.854203457235548  0.9342578425240826  1.0000
  H   H9        1.0  0.06544084886154411  0.20753284147318785  0.7253195894123108  1.0000
  H   H10       1.0  0.9810790361224923  0.3261793924804688  0.26020694545548384  1.0000
  H   H11       1.0  0.9758162846524067  0.20959166060644652  0.03222187960877232  1.0000
  H   H12       1.0  0.0036248734563562074  0.7931972787463413  0.25859690439417804  1.0000
  H   H13       1.0  0.04467218445804688  0.6782408920525806  0.61841384919609  1.0000
  H   H14       1.0  0.026398124542895474  0.8227596418647072  0.9942443490160845  1.0000
  H   H15       1.0  0.013038995073437087  0.9960093510477895  0.8991714158450721  1.0000
  C   C22       1.0  0.9996905238651178  0.5469133286874479  0.9704399915342085  1.0000
  C   C23       1.0  0.06715739432480672  0.6069263728692704  0.03793910425046443  1.0000
  C   C24       1.0  0.13004301966690582  0.6777722875695036  0.957117178197918  1.0000
  C   C25       1.0  0.12568728975120538  0.6889635478657701  0.805735268872362  1.0000
  C   C26       1.0  0.059936305470669624  0.6280539181119282  0.7368683447069424  1.0000
  C   C27       1.0  0.9970529644428068  0.5545892930703271  0.8170255423579755  1.0000
  O   O1        1.0  0.19526158904743132  0.7360397592337211  0.031284828590424585  1.0000
  C   C28       1.0  0.2631923035736073  0.8110338993570664  0.96311616130488  1.0000
  H   H16       1.0  0.8042750289985229  0.460961514429272  0.08450748458689938  1.0000
  H   H17       1.0  0.17321954702930964  0.7434015477051137  0.740047444238487  1.0000
  H   H18       1.0  0.8666982848558932  0.49098709608187524  0.5436220489737216  1.0000
  H   H19       1.0  0.2417979201702294  0.908933685874198  0.8989785082620058  1.0000
  H   H20       1.0  0.2969146826445961  0.7389903869946355  0.8922386639796152  1.0000
  H   H21       1.0  0.3053417737041726  0.8449420123227984  0.047290904473010986  1.0000
  Zn  Zn1       1.0  0.9086002948426902  0.5519665052061689  0.39510728616787505  1.0000
  Zn  Zn2       1.0  0.08813536549509582  0.5495355754717426  0.392357728262007  1.0000
  C   C29       1.0  0.9975145219977156  0.5473925870735429  0.6570074005270632  1.0000
  C   C30       1.0  0.9992231095601899  0.5541112881810575  0.13045772389687582  1.0000
  C   C31       1.0  0.9999984681570057  0.8141232451160605  0.387777472838406  1.0000
  C   C32       1.0  0.9967390912877923  0.28737889880359746  0.39968773076371966  1.0000
  O   O2        1.0  0.06719882617714035  0.5555981716427447  0.18311769880905637  1.0000
  O   O3        1.0  0.06580176447729169  0.5440595923559783  0.6022601607145925  1.0000
  O   O4        1.0  0.06780665928474416  0.7594479980208813  0.384855102123006  1.0000
  O   O5        1.0  0.06519387050642966  0.34020977614505354  0.40052265025154266  1.0000
  O   O6        1.0  0.9315417285648816  0.7612923053639167  0.3869423651090449  1.0000
  O   O7        1.0  0.9295368446040608  0.5459056318650142  0.6043473454531507  1.0000
  O   O8        1.0  0.9309339114499441  0.557444145176506  0.18520315054168246  1.0000
  O   O9        1.0  0.9289289553760166  0.3420557403426614  0.4026082100639752  1.0000
