data_image0
_chemical_formula_structural       NC6NC3H6C7NH5C6NCOH5Zn2C4O8
_chemical_formula_sum              "N4 C27 H16 O9 Zn2"
_cell_length_a       14.934028789175542
_cell_length_b       9.275154477615127
_cell_length_c       9.27373355559583
_cell_angle_alpha    86.40037001266045
_cell_angle_beta     89.98656969987877
_cell_angle_gamma    89.3962875590186

_space_group_name_H-M_alt    "P 1"
_space_group_IT_number       1

loop_
  _space_group_symop_operation_xyz
  'x, y, z'

loop_
  _atom_site_type_symbol
  _atom_site_label
  _atom_site_symmetry_multiplicity
  _atom_site_fract_x
  _atom_site_fract_y
  _atom_site_fract_z
  _atom_site_occupancy
  N   N1        1.0  0.8334203682328098  0.5600475845709232  0.4159299852677676  1.0000
  C   C1        1.0  0.7559409984664879  0.5589423612259248  0.4152468864551093  1.0000
  C   C2        1.0  0.6595527878832225  0.5575623838152194  0.4143941634149535  1.0000
  C   C3        1.0  0.6111417458371671  0.6650347983804354  0.4806978133086897  1.0000
  C   C4        1.0  0.517636706315515  0.6639267834650564  0.48001410963994573  1.0000
  C   C5        1.0  0.47162982886846017  0.555401202281804  0.4130607931673098  1.0000
  C   C6        1.0  0.3749700113558904  0.5577297421017604  0.414498638534599  1.0000
  N   N2        1.0  0.2974787416212593  0.559577735545417  0.41564007841177353  1.0000
  C   C7        1.0  0.5200442717267034  0.4464419244151904  0.3458392919462532  1.0000
  C   C8        1.0  0.4724399659148198  0.3284520720280113  0.27304835023259955  1.0000
  C   C9        1.0  0.6141735572908386  0.44868056102878073  0.34722044050995904  1.0000
  H   H1        1.0  0.6456750802684653  0.7497130982683502  0.5329395284272034  1.0000
  H   H2        1.0  0.481094030534176  0.7479529361228194  0.5318533481274152  1.0000
  H   H3        1.0  0.42938436197552937  0.3765618674181217  0.18464856635648097  1.0000
  H   H4        1.0  0.4300852927352107  0.26647823115067126  0.3529015226836911  1.0000
  H   H5        1.0  0.5203599376556264  0.2520282667769802  0.2258933051163083  1.0000
  H   H6        1.0  0.6522025483201904  0.3657722097391367  0.2960711036988062  1.0000
  C   C10       1.0  0.06804495102306095  0.13640282546789284  0.4141155750099823  1.0000
  C   C11       1.0  0.043459259058071104  0.21824286374099652  0.2870534280796013  1.0000
  C   C12       1.0  0.011590524323293654  0.1509450164275583  0.16672731624993387  1.0000
  C   C13       1.0  0.0037827796106877335  0.0008894345500805008  0.17204634379911132  1.0000
  C   C14       1.0  0.029198228354935435  0.9178097911815974  0.2962113417656407  1.0000
  C   C15       1.0  0.06286283605218168  0.9832115262986997  0.4174669294035396  1.0000
  C   C16       1.0  0.9858134481935568  0.236351634275735  0.03813429830464931  1.0000
  N   N3        1.0  0.9650958289470096  0.30500299532684494  0.9347784503400938  1.0000
  H   H7        1.0  0.08542676141660353  0.2168534714542572  0.767886544152975  1.0000
  H   H8        1.0  0.04711592142424001  0.3351526618506695  0.28277468672292816  1.0000
  H   H9        1.0  0.9788125293790564  0.9477953967397958  0.07956846786375871  1.0000
  H   H10       1.0  0.02449620397807672  0.8013455945984872  0.2960874388981227  1.0000
  H   H11       1.0  0.07836627001070551  0.6869698072963317  0.654501131877397  1.0000
  C   C17       1.0  0.0654304528732525  0.5552644514820186  0.9925462790516595  1.0000
  C   C18       1.0  0.9831811677284753  0.547072093107033  0.06651641189899249  1.0000
  C   C19       1.0  0.9016747099880874  0.5505636496500419  0.9916313317279243  1.0000
  C   C20       1.0  0.9023649879908242  0.5669343883265581  0.8403478945125133  1.0000
  C   C21       1.0  0.983281013532158  0.5729765749195244  0.7651660955368667  1.0000
  C   C22       1.0  0.06547732617808276  0.5643498566474886  0.8390362040880346  1.0000
  N   N4        1.0  0.8191403377706543  0.5455901854258631  0.07167739166145792  1.0000
  C   C23       1.0  0.7388730728880053  0.47927588889527944  0.02468260818045098  1.0000
  O   O1        1.0  0.7388691597055946  0.4029724496985748  0.9170300927003759  1.0000
  H   H12       1.0  0.2758262295890711  0.6551688566583653  0.08912410961278128  1.0000
  H   H13       1.0  0.8404647154875711  0.5765969407049931  0.7798099135383119  1.0000
  H   H14       1.0  0.2079258115255942  0.6255422667568562  0.5540834727490922  1.0000
  H   H15       1.0  0.818585043163822  0.5839280383567296  0.1752483137214218  1.0000
  H   H16       1.0  0.6775965529193991  0.4914300020770679  0.08518954438225923  1.0000
  Zn  Zn1       1.0  0.9673376281984715  0.5599082218285432  0.41585462583218424  1.0000
  Zn  Zn2       1.0  0.16356158465107085  0.559705413915166  0.41572717469294607  1.0000
  C   C24       1.0  0.06550162074748228  0.5568885288967341  0.6790087329868195  1.0000
  C   C25       1.0  0.06539972373630021  0.5627269254067382  0.15257321480923935  1.0000
  C   C26       1.0  0.06383743510966955  0.823084996825711  0.41108999036898664  1.0000
  C   C27       1.0  0.06706385302184281  0.2965287260660532  0.4204920274561754  1.0000
  O   O2        1.0  0.13985541809538016  0.565148144964476  0.20623132437606184  1.0000
  O   O3        1.0  0.13997537565608387  0.5543122906481246  0.6252534717535567  1.0000
  O   O4        1.0  0.13863052095316375  0.7692693221372964  0.4089071981053811  1.0000
  O   O5        1.0  0.14120020577125195  0.3501911226989698  0.4225774900417001  1.0000
  O   O6        1.0  0.9896989401166743  0.7694225131154364  0.40900431051934816  1.0000
  O   O7        1.0  0.9910437842102486  0.5544672131086701  0.6253505141743392  1.0000
  O   O8        1.0  0.9909238269206159  0.5653029985813389  0.20632663374839488  1.0000
  O   O9        1.0  0.9922686146619201  0.3503459671628637  0.42267290743248886  1.0000
