data_image0
_chemical_formula_structural       NC6NC3H6C6ClH5C6FH3Zn2C4O8
_chemical_formula_sum              "N2 C25 H14 Cl1 F1 Zn2 O8"
_cell_length_a       14.934028789175542
_cell_length_b       9.276545438789551
_cell_length_c       9.275646106892307
_cell_angle_alpha    84.98577803735094
_cell_angle_beta     89.99728415196485
_cell_angle_gamma    89.37211250715544

_space_group_name_H-M_alt    "P 1"
_space_group_IT_number       1

loop_
  _space_group_symop_operation_xyz
  'x, y, z'

loop_
  _atom_site_type_symbol
  _atom_site_label
  _atom_site_symmetry_multiplicity
  _atom_site_fract_x
  _atom_site_fract_y
  _atom_site_fract_z
  _atom_site_occupancy
  N   N1        1.0  0.8325939991348004  0.5941691436788814  0.4083767237880814  1.0000
  C   C1        1.0  0.75511474229394  0.593078377540411  0.40769638197314384  1.0000
  C   C2        1.0  0.6587266727590425  0.5917164472442584  0.40684710158422455  1.0000
  C   C3        1.0  0.610304618071901  0.6977856296869303  0.47288248564604835  1.0000
  C   C4        1.0  0.5167996920542147  0.6966920845172477  0.47220154754874094  1.0000
  C   C5        1.0  0.47080393518406727  0.5895834848040002  0.40551912585681205  1.0000
  C   C6        1.0  0.3741438794034016  0.5918815941610178  0.4069511607159526  1.0000
  N   N2        1.0  0.2966524206579947  0.5937054301712985  0.4080879896821705  1.0000
  C   C7        1.0  0.5192295428972296  0.4820468643409202  0.3385696010896564  1.0000
  C   C8        1.0  0.4716373277826598  0.36559753902313696  0.26607318003630653  1.0000
  C   C9        1.0  0.6133585990830832  0.48425627069581023  0.33994516178526113  1.0000
  H   H1        1.0  0.6448292757161275  0.7813583002165165  0.5249128329986912  1.0000
  H   H2        1.0  0.48024840627349363  0.7796211257544372  0.5238310459131197  1.0000
  H   H3        1.0  0.4285458883415132  0.41560587340856553  0.17738363424938997  1.0000
  H   H4        1.0  0.42931991247988216  0.30190603572058167  0.3462507304677458  1.0000
  H   H5        1.0  0.5195651289513205  0.2901717116181175  0.2191088899640623  1.0000
  H   H6        1.0  0.6513960856470177  0.40243042987053856  0.28900277532790547  1.0000
  C   C10       1.0  0.06732992507331881  0.17050196316566055  0.4079927401205801  1.0000
  C   C11       1.0  0.0676186510380885  0.2555716807652879  0.2747756901276781  1.0000
  C   C12       1.0  0.05976187440757541  0.1918878034157121  0.144463197346673  1.0000
  C   C13       1.0  0.05143073234525408  0.04229546027307318  0.14536296913123592  1.0000
  C   C14       1.0  0.05252258780720909  0.9557119850202755  0.2761339627611352  1.0000
  C   C15       1.0  0.06192519484171785  0.01736139180093943  0.4084844383785551  1.0000
  Cl  Cl1       1.0  0.05900597016920603  0.3002645384240781  0.9796894043833833  1.0000
  H   H7        1.0  0.11321188991738568  0.43099885605100124  0.6348802453789353  1.0000
  H   H8        1.0  0.07181335256041076  0.3723184828051982  0.27191552693321874  1.0000
  H   H9        1.0  0.044960654754784904  0.9926539056417426  0.04454568722398444  1.0000
  H   H10       1.0  0.048143882741995984  0.8394841558591964  0.27348268128248  1.0000
  H   H11       1.0  0.03199591164372072  0.7161705582457368  0.6418892803192828  1.0000
  C   C16       1.0  0.06449453218449452  0.5984449085106172  0.9844008246912361  1.0000
  C   C17       1.0  0.1463867339308207  0.6134334441855726  0.05641941245619142  1.0000
  C   C18       1.0  0.22725542901702422  0.6148838067331142  0.9809241595387709  1.0000
  C   C19       1.0  0.22765308125436487  0.6012263809613887  0.8325397824744591  1.0000
  C   C20       1.0  0.14714869943790065  0.5886406760296481  0.7585897585063646  1.0000
  C   C21       1.0  0.06476053153549062  0.5894184266646603  0.8320763373252509  1.0000
  F   F1        1.0  0.30558813505331717  0.6278237211672404  0.05231813981115875  1.0000
  H   H12       1.0  0.8576079293554483  0.48150517801530357  0.09761491014717572  1.0000
  H   H13       1.0  0.29044131524127814  0.6017668605013526  0.7741856997990237  1.0000
  H   H14       1.0  0.9246574622054821  0.5166198709172265  0.5572756996167532  1.0000
  Zn  Zn1       1.0  0.9665112761601184  0.594031373334478  0.4083017274790086  1.0000
  Zn  Zn2       1.0  0.16273525278409162  0.5938312633081522  0.4081747792257684  1.0000
  C   C22       1.0  0.06474494220853685  0.5853802568020008  0.6718441829872646  1.0000
  C   C23       1.0  0.06450371792846327  0.6024841955119893  0.14463246504854266  1.0000
  C   C24       1.0  0.06294037235165434  0.8573481497131671  0.4026400157319262  1.0000
  C   C25       1.0  0.06630823190839896  0.330514569440318  0.4138367082903376  1.0000
  O   O1        1.0  0.13897281739490674  0.6037575857244302  0.19835948743369228  1.0000
  O   O2        1.0  0.13920530749793394  0.5839539043447213  0.6180203937065819  1.0000
  O   O3        1.0  0.13774709115061545  0.8035714024167793  0.4006361255036908  1.0000
  O   O4        1.0  0.14043096668447963  0.38414009918798775  0.41574364746768233  1.0000
  O   O5        1.0  0.9888154952981051  0.8037225375245803  0.40073285927282476  1.0000
  O   O6        1.0  0.9902737005607453  0.5841067726829658  0.6181170515249904  1.0000
  O   O7        1.0  0.9900412102933623  0.6039104222929119  0.19845440994625618  1.0000
  O   O8        1.0  0.9914993596790554  0.38429292429079254  0.415838678184878  1.0000
