data_image0
_chemical_formula_structural       NC8NC6H8C8H6C7OCH10Zn2C4O8
_chemical_formula_sum              "N2 C34 H24 O9 Zn2"
_cell_length_a       17.457602349358154
_cell_length_b       9.27514070457351
_cell_length_c       10.300835455316063
_cell_angle_alpha    85.70757600904483
_cell_angle_beta     92.89337507241441
_cell_angle_gamma    92.27341969939751

_space_group_name_H-M_alt    "P 1"
_space_group_IT_number       1

loop_
  _space_group_symop_operation_xyz
  'x, y, z'

loop_
  _atom_site_type_symbol
  _atom_site_label
  _atom_site_symmetry_multiplicity
  _atom_site_fract_x
  _atom_site_fract_y
  _atom_site_fract_z
  _atom_site_occupancy
  N   N1        1.0  0.7310538878767145  0.6132537637016706  0.6308787509421598  1.0000
  C   C1        1.0  0.6696932505529416  0.5622467212745568  0.6201313263777083  1.0000
  C   C2        1.0  0.5933580713773752  0.49880030883620746  0.6067710875730805  1.0000
  C   C3        1.0  0.5350887368043677  0.5434193348834255  0.681776008886602  1.0000
  C   C4        1.0  0.4602047028351091  0.4823256050854827  0.6690362676249995  1.0000
  C   C5        1.0  0.3983589980929325  0.5294367726707019  0.7484689535509732  1.0000
  C   C6        1.0  0.32391498023976995  0.5499368110732974  0.6927656612837836  1.0000
  C   C7        1.0  0.265644538297838  0.5943515895007696  0.7678779906485715  1.0000
  C   C8        1.0  0.1897656613858807  0.6155240514701743  0.7099612595097704  1.0000
  N   N2        1.0  0.1287719218831229  0.6325396255793739  0.6633963402303462  1.0000
  C   C9        1.0  0.2813275314139854  0.6185364658791751  0.899202772473743  1.0000
  C   C10       1.0  0.3549892945124227  0.5984685166050526  0.9552947423816105  1.0000
  C   C11       1.0  0.4132493164335349  0.5542537992770091  0.8806406003825014  1.0000
  C   C12       1.0  0.4448742445050589  0.375860215841481  0.5798568969672417  1.0000
  C   C13       1.0  0.503133638137335  0.331550773872479  0.5052527375872555  1.0000
  C   C14       1.0  0.577233694572803  0.39276941862245746  0.5185426875819086  1.0000
  H   H1        1.0  0.5479047125922406  0.6269440736520933  0.7486164038405735  1.0000
  H   H2        1.0  0.3114596981233897  0.5332903532017246  0.590710163032766  1.0000
  H   H3        1.0  0.2366661743414575  0.6528468591992191  0.9581209234106924  1.0000
  H   H4        1.0  0.3669403193089129  0.6168448506458803  0.05698153565586306  1.0000
  H   H5        1.0  0.46965176201191033  0.5376129645669965  0.9266980694688584  1.0000
  H   H6        1.0  0.38811048334718806  0.3255080565486941  0.5690750673514151  1.0000
  H   H7        1.0  0.4908380769512436  0.2492657476308899  0.43721739911771945  1.0000
  H   H8        1.0  0.6218898728860184  0.35749323345985284  0.46013308148547494  1.0000
  C   C15       1.0  0.9275851536946329  0.1993428407777711  0.6460391399582579  1.0000
  C   C16       1.0  0.9385218366135294  0.2832863334668208  0.5284850878729078  1.0000
  C   C17       1.0  0.9561519142758906  0.218799040916368  0.41613219975839155  1.0000
  C   C18       1.0  0.963267159390618  0.06921475033593727  0.41918246033455175  1.0000
  C   C19       1.0  0.9513472204873117  0.983642223404685  0.5345280143169517  1.0000
  C   C20       1.0  0.9322479116427669  0.04643977562029257  0.6482477823484926  1.0000
  C   C21       1.0  0.9819435838470341  0.003026420013471989  0.3032856215807191  1.0000
  C   C22       1.0  0.9975810623166184  0.9475949760158993  0.20625521946990763  1.0000
  H   H9        1.0  0.9401958046643352  0.2765370208584912  0.9661259681133458  1.0000
  H   H10       1.0  0.9352211804436823  0.3999501899028259  0.5242380019597217  1.0000
  H   H11       1.0  0.9649858969337121  0.28594657243659816  0.32708826496022997  1.0000
  H   H12       1.0  0.9552157941979251  0.8672225447613199  0.5346839059716637  1.0000
  H   H13       1.0  0.9377931404911941  0.748234533540129  0.8636680377562961  1.0000
  H   H14       1.0  0.011307412131483115  0.8989361111361731  0.12108289716658116  1.0000
  C   C23       1.0  0.9298464054785384  0.6228143367438232  0.2658210128885481  1.0000
  C   C24       1.0  0.0006911305576307009  0.7000217312117987  0.2658361161635472  1.0000
  C   C25       1.0  0.03593612001714486  0.7404139599909093  0.14858803588355274  1.0000
  C   C26       1.0  0.0008754751105517515  0.7002222840588864  0.030552816759382703  1.0000
  C   C27       1.0  0.9299866935706578  0.622968262046679  0.02846590422632001  1.0000
  C   C28       1.0  0.8948045766064608  0.5850233503407731  0.14656029246105562  1.0000
  C   C29       1.0  0.11278599537356045  0.8192986951060941  0.1500682288578028  1.0000
  O   O1        1.0  0.1708558373794785  0.7168652329598866  0.16209700452878728  1.0000
  C   C30       1.0  0.24332284103327084  0.7895880534952864  0.1636313816396333  1.0000
  H   H15       1.0  0.9031327698127659  0.5917701032372951  0.5933490918238175  1.0000
  H   H16       1.0  0.028755853230256753  0.7290315949662296  0.35692886587091643  1.0000
  H   H17       1.0  0.02906664264976344  0.7293711360958672  0.9404813615713699  1.0000
  H   H18       1.0  0.8401696813364175  0.5254669206758484  0.14578658142069423  1.0000
  H   H19       1.0  0.7966784501399514  0.47581793169127984  0.8174102102629738  1.0000
  H   H20       1.0  0.1172346741851429  0.8898977324189636  0.23326646196893508  1.0000
  H   H21       1.0  0.1174126108254521  0.8899283546894757  0.05816700968358734  1.0000
  H   H22       1.0  0.2883238293458317  0.7078061365776449  0.1731070534077914  1.0000
  H   H23       1.0  0.25145451745766273  0.8569367680529124  0.24858359083831244  1.0000
  H   H24       1.0  0.2516422321022813  0.8570060175574394  0.07108805219624936  1.0000
  Zn  Zn1       1.0  0.8458267014291071  0.6188153804140579  0.6402701122619637  1.0000
  Zn  Zn2       1.0  0.0139990309429936  0.6269661853851807  0.6540155793094702  1.0000
  C   C31       1.0  0.9299268227425225  0.61719313293224  0.8842945468830301  1.0000
  C   C32       1.0  0.9299007561069869  0.6285903417746362  0.4099914269842999  1.0000
  C   C33       1.0  0.9313616646011711  0.8863191868134637  0.6426554127567811  1.0000
  C   C34       1.0  0.9284658473370273  0.35946255223074597  0.6516306211322451  1.0000
  O   O2        1.0  0.9937394846511287  0.6336157173786896  0.4635926516711155  1.0000
  O   O3        1.0  0.9937269949985144  0.6183529415345881  0.841125436999387  1.0000
  O   O4        1.0  0.9948847878625992  0.8356755921820537  0.6460000601459832  1.0000
  O   O5        1.0  0.9925816344401063  0.41629307424811257  0.6587179264982248  1.0000
  O   O6        1.0  0.8672440405430398  0.8294884887712246  0.6355677603757297  1.0000
  O   O7        1.0  0.8660862572013106  0.6121675710065242  0.8306930725099582  1.0000
  O   O8        1.0  0.8660987463411499  0.6274302962760134  0.4531587258444331  1.0000
  O   O9        1.0  0.8649408960881099  0.41010764284864687  0.6482840980003578  1.0000
