data_image0
_chemical_formula_structural       NC8NH4C10H6C6ClH4Zn2C4O8
_chemical_formula_sum              "N2 C28 H14 Cl1 Zn2 O8"
_cell_length_a       11.048855714531884
_cell_length_b       9.275150299802176
_cell_length_c       9.276548810779735
_cell_angle_alpha    85.75527424230437
_cell_angle_beta     89.72476913812324
_cell_angle_gamma    89.4838956589931

_space_group_name_H-M_alt    "P 1"
_space_group_IT_number       1

loop_
  _space_group_symop_operation_xyz
  'x, y, z'

loop_
  _atom_site_type_symbol
  _atom_site_label
  _atom_site_symmetry_multiplicity
  _atom_site_fract_x
  _atom_site_fract_y
  _atom_site_fract_z
  _atom_site_occupancy
  N   N1        1.0  0.1342969549647004  0.5644656999219098  0.4016866597616793  1.0000
  C   C1        1.0  0.08057121133621781  0.5057135103538415  0.31705797075326836  1.0000
  C   C2        1.0  0.013538059138306975  0.4324075252633739  0.211465252831045  1.0000
  C   C3        1.0  0.8858213047718481  0.4324073355253244  0.21146535559788826  1.0000
  C   C4        1.0  0.8240198715693401  0.35994110032970816  0.10708253465903605  1.0000
  C   C5        1.0  0.8884068033747581  0.2880480727816588  0.003525301474515131  1.0000
  C   C6        1.0  0.014813016532000399  0.28804796281072864  0.0035253247547482047  1.0000
  C   C7        1.0  0.07727740975714693  0.359941198560271  0.1070825063947438  1.0000
  C   C8        1.0  0.8168277897466754  0.5057135852034793  0.31705795720065555  1.0000
  N   N2        1.0  0.7615308406638677  0.5644657428769346  0.4016866883007775  1.0000
  H   H1        1.0  0.7259697669420496  0.3590336489226109  0.1057747691245099  1.0000
  H   H2        1.0  0.8402545522593909  0.23228616748303102  0.9232045160725154  1.0000
  H   H3        1.0  0.06445659266362447  0.23228627695333445  0.923204514843622  1.0000
  H   H4        1.0  0.17535177794612578  0.3590336023646456  0.10577504442308294  1.0000
  C   C9        1.0  0.45110323042952793  0.14078219060229236  0.404098921510619  1.0000
  C   C10       1.0  0.5151983442870808  0.22183916123060052  0.2950866368517069  1.0000
  C   C11       1.0  0.5689365609107089  0.1546439401668429  0.1805344896365304  1.0000
  C   C12       1.0  0.5591262444453332  0.005412388908356384  0.173519143263122  1.0000
  C   C13       1.0  0.4976761096006731  0.9229056662799552  0.2818838396119481  1.0000
  C   C14       1.0  0.44473617569923435  0.9881381991785567  0.3992869496710372  1.0000
  C   C15       1.0  0.6330565952890732  0.2394202961831171  0.06902974999099731  1.0000
  C   C16       1.0  0.6867412483586931  0.3104231194369278  0.9756770422058206  1.0000
  C   C17       1.0  0.7496034869498347  0.39357240435380203  0.8663650927018204  1.0000
  C   C18       1.0  0.8032777893533289  0.4645699088088185  0.7730302799745501  1.0000
  H   H5        1.0  0.39277422223005154  0.4051946393984891  0.6329115316187008  1.0000
  H   H6        1.0  0.5210043604733583  0.33830784512195566  0.2973126286388428  1.0000
  H   H7        1.0  0.6000609397059329  0.9524581172525683  0.08487984941697846  1.0000
  H   H8        1.0  0.4940002388958014  0.8068488198805631  0.2756629181391037  1.0000
  H   H9        1.0  0.364688039686208  0.8607924518257172  0.7416399864763144  1.0000
  H   H10       1.0  0.850408303969418  0.5269117467741715  0.6910746054357397  1.0000
  C   C19       1.0  0.44965469552182646  0.5605948890453498  0.9785655300097965  1.0000
  C   C20       1.0  0.5507676086114016  0.6154397464039691  0.04736055162286145  1.0000
  C   C21       1.0  0.6450115791702213  0.6810379652520933  0.9667555627002788  1.0000
  C   C22       1.0  0.6395552584863033  0.692895477187019  0.8162486998942518  1.0000
  C   C23       1.0  0.5410870879745433  0.6370385789172117  0.7458103192398262  1.0000
  C   C24       1.0  0.44618471781305935  0.5683254699140603  0.8248203666283058  1.0000
  Cl  Cl1       1.0  0.7694385739582714  0.7505087604001854  0.05486552136325828  1.0000
  H   H11       1.0  0.3040209889268688  0.39910579131386426  0.2724847327340518  1.0000
  H   H12       1.0  0.7122434535862444  0.7442209413118661  0.7534679792005559  1.0000
  H   H13       1.0  0.5405867771389391  0.6445668295002909  0.6287192765452692  1.0000
  H   H14       1.0  0.25216629769630666  0.5154296448660791  0.5485246475790619  1.0000
  Zn  Zn1       1.0  0.3153031147239367  0.5644619176961923  0.40169500781762824  1.0000
  Zn  Zn2       1.0  0.5805247485982585  0.5644577991435562  0.4016901996639082  1.0000
  C   C25       1.0  0.44688112899899757  0.5611165492269397  0.6648926970947331  1.0000
  C   C26       1.0  0.44894961627661384  0.5678049892917738  0.13849264141996076  1.0000
  C   C27       1.0  0.4459570289627948  0.8279174459214778  0.3944546766767927  1.0000
  C   C28       1.0  0.44987363852114703  0.30100235987502066  0.4089307485033462  1.0000
  O   O1        1.0  0.5493632603779495  0.5702169074486119  0.19216385203675812  1.0000
  O   O2        1.0  0.547764578076575  0.5587004129676226  0.6112174286006953  1.0000
  O   O3        1.0  0.5470169926539568  0.774145524914015  0.39283680522467934  1.0000
  O   O4        1.0  0.5501107556638279  0.35477180483771087  0.4105443673189697  1.0000
  O   O5        1.0  0.3457170171512598  0.7741479120049446  0.3928408401566197  1.0000
  O   O6        1.0  0.3464645898584405  0.5587045327836742  0.6112213768612438  1.0000
  O   O7        1.0  0.34806327972142315  0.5702209611619464  0.1921660682145241  1.0000
  O   O8        1.0  0.34881077463693333  0.35477584921846095  0.41054669158459367  1.0000
