data_image0
_chemical_formula_structural       NC9NC5H8C12NCOCH13C12OCH12Zn2C4O8
_chemical_formula_sum              "N3 C45 H33 O10 Zn2"
_cell_length_a       17.807436237873137
_cell_length_b       10.299155265289647
_cell_length_c       10.299794127170985
_cell_angle_alpha    85.56075829467142
_cell_angle_beta     89.38603407784058
_cell_angle_gamma    88.36808077728017

_space_group_name_H-M_alt    "P 1"
_space_group_IT_number       1

loop_
  _space_group_symop_operation_xyz
  'x, y, z'

loop_
  _atom_site_type_symbol
  _atom_site_label
  _atom_site_symmetry_multiplicity
  _atom_site_fract_x
  _atom_site_fract_y
  _atom_site_fract_z
  _atom_site_occupancy
  N   N1        1.0  0.7072025260210401  0.3874467472017096  0.5567861142996413  1.0000
  C   C1        1.0  0.6466234848639948  0.3522508335393118  0.545772981675513  1.0000
  C   C2        1.0  0.5712698158635744  0.3084709929150371  0.5320738404683771  1.0000
  C   C3        1.0  0.5532011757668338  0.23701905490801622  0.4270964854212697  1.0000
  C   C4        1.0  0.4800366812240282  0.19440067337688036  0.4137129099137309  1.0000
  C   C5        1.0  0.4238921935848938  0.22285665907795393  0.5052743497692269  1.0000
  C   C6        1.0  0.3461371655608497  0.17767924610098615  0.4911331121222346  1.0000
  C   C7        1.0  0.2839410693375109  0.25944988437209315  0.5170469535265045  1.0000
  C   C8        1.0  0.210634313723907  0.21662845179956539  0.5036771179974355  1.0000
  C   C9        1.0  0.1473875107221736  0.30109077425454656  0.5299540583452296  1.0000
  N   N2        1.0  0.0965500707369115  0.36899263838947394  0.5510799936398514  1.0000
  C   C10       1.0  0.1989401679888383  0.09177837196922799  0.4643681679599603  1.0000
  C   C11       1.0  0.260278898003429  0.009993877773532896  0.4384459412796377  1.0000
  C   C12       1.0  0.3334663220971136  0.05242067670306927  0.4516133627774024  1.0000
  C   C13       1.0  0.44265211458774906  0.2948030693299885  0.6104707801411653  1.0000
  C   C14       1.0  0.5158695328435452  0.3372309947346599  0.6236987674160677  1.0000
  H   H1        1.0  0.595605862545072  0.21451084141092489  0.3553934363814426  1.0000
  H   H2        1.0  0.4671415172682209  0.14068950540488198  0.3308117846169598  1.0000
  H   H3        1.0  0.2924151333950316  0.35693140220203046  0.545894179964086  1.0000
  H   H4        1.0  0.1424833494190556  0.05773636479569345  0.4537837182147108  1.0000
  H   H5        1.0  0.2511063892791542  0.9133321744325026  0.40839811556374195  1.0000
  H   H6        1.0  0.3801229120021332  0.9866645519273199  0.43258505378522805  1.0000
  H   H7        1.0  0.4009643399250102  0.31677256965585515  0.683468429126272  1.0000
  H   H8        1.0  0.5292928474851446  0.39216254352255137  0.7055579537048402  1.0000
  C   C15       1.0  0.901963788341453  0.9968181078789633  0.5540504931776657  1.0000
  C   C16       1.0  0.8891394684073354  0.007098592846396923  0.41932012531253976  1.0000
  C   C17       1.0  0.8825645157033872  0.8951767564186437  0.35089233892825744  1.0000
  C   C18       1.0  0.8889598566818775  0.7718472738022817  0.41901498847148216  1.0000
  C   C19       1.0  0.901796010607654  0.759611010718443  0.5538267693139369  1.0000
  C   C20       1.0  0.9082222946298374  0.8726170831378021  0.6205145150011822  1.0000
  C   C21       1.0  0.8689988611412037  0.9070258935250154  0.20836386474053437  1.0000
  C   C22       1.0  0.9071045639013495  0.9993141240274984  0.12639195700047545  1.0000
  C   C23       1.0  0.8943445708774789  0.01033377241841027  0.9922630746592209  1.0000
  C   C24       1.0  0.8436908838701394  0.9283809601452362  0.9372577076024013  1.0000
  C   C25       1.0  0.8046675120862417  0.837952496513299  0.01917490824837009  1.0000
  C   C26       1.0  0.8174548700731754  0.8266755240756286  0.15326605597873733  1.0000
  N   N3        1.0  0.8285134426812097  0.9393133371121478  0.7999260909258603  1.0000
  C   C27       1.0  0.8833755092166506  0.9736295406390417  0.7009093351547383  1.0000
  O   O1        1.0  0.9522943877077907  0.9729029449955813  0.7277562923479763  1.0000
  C   C28       1.0  0.8594176970490142  0.0011836282638923957  0.5627276162777184  1.0000
  H   H9        1.0  0.9069198900847893  0.32033887404893124  0.6058675199123573  1.0000
  H   H10       1.0  0.883199009128923  0.10241470335557534  0.3676001868690979  1.0000
  H   H11       1.0  0.8849220428770992  0.6852288585345551  0.3664483964547993  1.0000
  H   H12       1.0  0.9181164897231054  0.863972545176825  0.7244343807789769  1.0000
  H   H13       1.0  0.9264734463171087  0.5292110379290168  0.8081395490533055  1.0000
  H   H14       1.0  0.9472185119236288  0.062469353545387074  0.1658943448266645  1.0000
  H   H15       1.0  0.9231696549876857  0.08441104066013082  0.9322632297342377  1.0000
  H   H16       1.0  0.7644815238744798  0.7755045552777766  0.9788065844392929  1.0000
  H   H17       1.0  0.7862156903877257  0.7563291955672223  0.21413418564949138  1.0000
  H   H18       1.0  0.7756011597221498  0.9129463393050584  0.7696296859260601  1.0000
  H   H19       1.0  0.8051873331739665  0.057198771346522286  0.5590689757796756  1.0000
  H   H20       1.0  0.8524688090497344  0.9078941462201786  0.5176076908586578  1.0000
  H   H21       1.0  0.9021896284428894  0.05923633982484433  0.5067083054889235  1.0000
  C   C29       1.0  0.9019052515205567  0.37809985551370556  0.17258686882180463  1.0000
  C   C30       1.0  0.8282989404546363  0.3324623653177239  0.17648681842134795  1.0000
  C   C31       1.0  0.7909813585813426  0.3094410648651531  0.061316358558526796  1.0000
  C   C32       1.0  0.8282478154397471  0.33269127174191776  0.9411826088929999  1.0000
  C   C33       1.0  0.901854547044582  0.37832924947036156  0.9352903911448504  1.0000
  C   C34       1.0  0.9382718616049607  0.4007750711234841  0.05151832092336072  1.0000
  C   C35       1.0  0.7131122034934135  0.2611519878572164  0.06649695175787751  1.0000
  C   C36       1.0  0.6593191978701369  0.3123722613295632  0.9761225642597301  1.0000
  C   C37       1.0  0.586134304637369  0.2669074555362181  0.9812608991533502  1.0000
  C   C38       1.0  0.5656785280717279  0.16993598734015  0.07627643002801698  1.0000
  C   C39       1.0  0.6187306774699975  0.11734612973947155  0.1675246739712728  1.0000
  C   C40       1.0  0.6920175532210607  0.16344569432116102  0.161933279103478  1.0000
  O   O2        1.0  0.6010690030779723  0.01960321385566144  0.2646344014877679  1.0000
  C   C41       1.0  0.5290695426097143  0.963737943113871  0.2817443736683367  1.0000
  H   H22       1.0  0.9299624182950563  0.39543090711823625  0.4985582497809377  1.0000
  H   H23       1.0  0.7994403627531775  0.31640009044592854  0.2691919477012101  1.0000
  H   H24       1.0  0.8000901819928157  0.31342992985279666  0.8522698523485372  1.0000
  H   H25       1.0  0.9950563529918186  0.43598162104633387  0.04774127799755457  1.0000
  H   H26       1.0  0.9298867285236696  0.39578128886989883  0.605588033333186  1.0000
  H   H27       1.0  0.6735898042448221  0.3887675707429119  0.9025718631434372  1.0000
  H   H28       1.0  0.545050510893618  0.307252902103063  0.9115137416855763  1.0000
  H   H29       1.0  0.5086121352962792  0.13660396687984977  0.07795190663800367  1.0000
  H   H30       1.0  0.7327705675354949  0.12136577916073232  0.23151203698947187  1.0000
  H   H31       1.0  0.5135956493656763  0.9160121055411755  0.1931249883454453  1.0000
  H   H32       1.0  0.5310163859694785  0.8891644345496248  0.3654098168220503  1.0000
  H   H33       1.0  0.4862642819297394  0.040030532803392076  0.30262674775376386  1.0000
  Zn  Zn1       1.0  0.8195598161260617  0.38211782670636574  0.5551469626072885  1.0000
  Zn  Zn2       1.0  0.9841927640536061  0.3743109750190299  0.5527298245691123  1.0000
  C   C42       1.0  0.90186357190561  0.37311183317180097  0.7911246508446506  1.0000
  C   C43       1.0  0.901890805691749  0.38331852210062606  0.3167522369167921  1.0000
  C   C44       1.0  0.9018241805903153  0.6154255151569006  0.5486941885873284  1.0000
  C   C45       1.0  0.9019301411679937  0.14100328236468496  0.5591827696920679  1.0000
  O   O3        1.0  0.9643633045328079  0.3821016285262846  0.3642181617896631  1.0000
  O   O4        1.0  0.9643436714348557  0.3684025270352569  0.7418238005876938  1.0000
  O   O5        1.0  0.9643110201352655  0.5640739300571486  0.5460594990488106  1.0000
  O   O6        1.0  0.9643958996587576  0.18643023743007348  0.5599823667803372  1.0000
  O   O7        1.0  0.8393566243397652  0.5699985669608292  0.5478944212140826  1.0000
  O   O8        1.0  0.8393892752972603  0.3743287243552864  0.7436586530530318  1.0000
  O   O9        1.0  0.8394089085589844  0.3880277801145684  0.36605145293704777  1.0000
  O   O10       1.0  0.8394415036774294  0.1923563797581842  0.5618157552939508  1.0000
