data_image0
_chemical_formula_structural       NC9NC4H8C6NO2H5C7ONH7Zn2C4O8
_chemical_formula_sum              "N4 C30 H20 O11 Zn2"
_cell_length_a       16.32274767691083
_cell_length_b       9.273392599741051
_cell_length_c       10.297855452804894
_cell_angle_alpha    85.66470054647645
_cell_angle_beta     89.4600573046752
_cell_angle_gamma    88.93063911827517

_space_group_name_H-M_alt    "P 1"
_space_group_IT_number       1

loop_
  _space_group_symop_operation_xyz
  'x, y, z'

loop_
  _atom_site_type_symbol
  _atom_site_label
  _atom_site_symmetry_multiplicity
  _atom_site_fract_x
  _atom_site_fract_y
  _atom_site_fract_z
  _atom_site_occupancy
  N   N1        1.0  0.7623504655319912  0.5687502759569272  0.5597683622394485  1.0000
  C   C1        1.0  0.7103388340483116  0.5160818527639017  0.5053583706104317  1.0000
  C   C2        1.0  0.6456875019544465  0.45066726111680855  0.4377807259509161  1.0000
  C   C3        1.0  0.6577905355628978  0.36119177479142417  0.3453422407347526  1.0000
  C   C4        1.0  0.5786934620514687  0.31752726162021894  0.30023532583580037  1.0000
  C   C5        1.0  0.5193674392295259  0.3814292673063533  0.3662557530925534  1.0000
  C   C6        1.0  0.4295338184164146  0.36454054030518357  0.348810676662761  1.0000
  C   C7        1.0  0.37347983592392425  0.43902245756772923  0.42575435356570046  1.0000
  C   C8        1.0  0.2888600891043586  0.4245885399434846  0.4108446862590689  1.0000
  C   C9        1.0  0.2323800996109647  0.501360168601972  0.49015298557978326  1.0000
  N   N2        1.0  0.18698920721732393  0.5630719251144498  0.5539034265862299  1.0000
  C   C10       1.0  0.2592420272368816  0.33555224468410616  0.31886752781135286  1.0000
  C   C11       1.0  0.3139734845786817  0.26116898404030797  0.24202610978246583  1.0000
  C   C12       1.0  0.3984368263630903  0.27521411869513956  0.25653402292924965  1.0000
  C   C13       1.0  0.55654843221708  0.4746054484951528  0.46251486238712974  1.0000
  H   H1        1.0  0.7169120547527051  0.3263989782446439  0.3093950145999007  1.0000
  H   H2        1.0  0.5708479884058267  0.2443990582290285  0.22468528231235751  1.0000
  H   H3        1.0  0.39516471379110735  0.5085302959353462  0.4975581381747216  1.0000
  H   H4        1.0  0.1939234115763273  0.32366168665786405  0.30658527915747347  1.0000
  H   H5        1.0  0.29088868499394704  0.19229110889281806  0.17087335434746143  1.0000
  H   H6        1.0  0.4385840924826206  0.21571229807223233  0.19506622920091596  1.0000
  H   H7        1.0  0.539992050842414  0.43598076897414595  0.5639580171417544  1.0000
  H   H8        1.0  0.5390888539402436  0.5901902473602574  0.44058043004674824  1.0000
  C   C14       1.0  0.9771716029786772  0.14234926383256963  0.5559845454665373  1.0000
  C   C15       1.0  0.9667469941057282  0.2258677429148341  0.4374752787832439  1.0000
  C   C16       1.0  0.9490911075228959  0.16103958184702383  0.323371292057524  1.0000
  C   C17       1.0  0.9412752933324829  0.010727750787845158  0.32459505938539657  1.0000
  C   C18       1.0  0.9529780834392859  0.926024060608688  0.44218090445150304  1.0000
  C   C19       1.0  0.9721759882764681  0.9894616522958027  0.5576983232340857  1.0000
  N   N3        1.0  0.9223447219195903  0.9445002592066969  0.20669996895666864  1.0000
  O   O1        1.0  0.9116029929360238  0.02777378106988836  0.09153216876830217  1.0000
  O   O2        1.0  0.9151292869632889  0.8106634382591816  0.2070069907712515  1.0000
  H   H9        1.0  0.9604592235810695  0.21896543323839054  0.8750116343742314  1.0000
  H   H10       1.0  0.9703292719404589  0.34266326973121347  0.43358817667458766  1.0000
  H   H11       1.0  0.9407261848128742  0.22909320715785508  0.2342137425154949  1.0000
  H   H12       1.0  0.9490203489193064  0.8094745815294547  0.44316016449971635  1.0000
  H   H13       1.0  0.9637151260362667  0.6914306646438003  0.7732706754901977  1.0000
  C   C20       1.0  0.9747050912692284  0.5660484268454873  0.17539928345749045  1.0000
  C   C21       1.0  0.8906884972757181  0.6019418051921486  0.1732380810024452  1.0000
  C   C22       1.0  0.8479019270511784  0.6189071681199128  0.055144105035035855  1.0000
  C   C23       1.0  0.890590783027332  0.6016186715413863  0.9380058880226532  1.0000
  C   C24       1.0  0.9746424887061969  0.5657624791836348  0.9382835965156874  1.0000
  C   C25       1.0  0.016101874003538574  0.5478799733356801  0.05744879049271545  1.0000
  C   C26       1.0  0.7592231653668615  0.65715942769982  0.05543691180033882  1.0000
  O   O3        1.0  0.728539763036957  0.7191107222428235  0.14978972299194981  1.0000
  N   N4        1.0  0.7070181210841202  0.6237534495215789  0.9514676855490651  1.0000
  H   H14       1.0  0.1335578497482588  0.4987260543965552  0.38671599969762815  1.0000
  H   H15       1.0  0.858214235454213  0.6155252856166777  0.26386983950393095  1.0000
  H   H16       1.0  0.8590183081053127  0.6186712571991937  0.8460830313509463  1.0000
  H   H17       1.0  0.08085379968774432  0.5202129662568058  0.05836104851770707  1.0000
  H   H18       1.0  0.13379571995459105  0.5002611247898494  0.7313743501757268  1.0000
  H   H19       1.0  0.6456453076565283  0.6576102651008369  0.9512930906424133  1.0000
  H   H20       1.0  0.7268802495398973  0.5576905917220285  0.8793779365395942  1.0000
  Zn  Zn1       1.0  0.8848920621017712  0.5671077525463435  0.5580833620969847  1.0000
  Zn  Zn2       1.0  0.06444768574658144  0.564702608529432  0.5555990440065757  1.0000
  C   C27       1.0  0.9746863860333652  0.5600705194366971  0.7940705393309395  1.0000
  C   C28       1.0  0.9746553118139339  0.5717416352358484  0.3196119708167621  1.0000
  C   C29       1.0  0.9731164711872479  0.8293414022933707  0.5521982977213202  1.0000
  C   C30       1.0  0.9762251756040544  0.30246902024690603  0.5614842790201247  1.0000
  O   O4        1.0  0.042779065893950634  0.5727332957877952  0.3670682675949295  1.0000
  O   O5        1.0  0.04284120211297915  0.5572523222529592  0.7447283264861388  1.0000
  O   O6        1.0  0.041572557344137895  0.7746919773528117  0.5494147958436919  1.0000
  O   O7        1.0  0.04404764933976302  0.35529365186320305  0.5623817017126105  1.0000
  O   O8        1.0  0.905292037235059  0.7765167100349031  0.5513007052318968  1.0000
  O   O9        1.0  0.9065606717863662  0.5590787878896497  0.7466141701215481  1.0000
  O   O10       1.0  0.9064985360463801  0.5745597117461606  0.36895254942731115  1.0000
  O   O11       1.0  0.9077671195416903  0.3571200574686384  0.5642660809107052  1.0000
