data_image0
_chemical_formula_structural       NC6NC2H4C6H4C12H8Zn2C4O8
_chemical_formula_sum              "N2 C30 H16 Zn2 O8"
_cell_length_a       14.927258858638513
_cell_length_b       10.681118228259553
_cell_length_c       14.389300134226545
_cell_angle_alpha    83.1335448611894
_cell_angle_beta     90.22201251492375
_cell_angle_gamma    89.99830799242187

_space_group_name_H-M_alt    "P 1"
_space_group_IT_number       1

loop_
  _space_group_symop_operation_xyz
  'x, y, z'

loop_
  _atom_site_type_symbol
  _atom_site_label
  _atom_site_symmetry_multiplicity
  _atom_site_fract_x
  _atom_site_fract_y
  _atom_site_fract_z
  _atom_site_occupancy
  N   N1        1.0  0.8396923226377767  0.42945321283243226  0.9703341195030033  1.0000
  C   C1        1.0  0.7621658314962497  0.42945318768248475  0.970334126359572  1.0000
  C   C2        1.0  0.665733323829217  0.42945328948046174  0.9703340940732416  1.0000
  C   C3        1.0  0.6183748614739991  0.41357487409393523  0.888297676364788  1.0000
  C   C4        1.0  0.524663549807083  0.41357490130133906  0.8882975899433481  1.0000
  C   C5        1.0  0.4779172598858444  0.42945313460712004  0.9703341061353679  1.0000
  C   C6        1.0  0.38148468522726137  0.4294532364078907  0.9703340738452011  1.0000
  N   N2        1.0  0.3039581940857351  0.42945321125794345  0.9703340807017697  1.0000
  C   C7        1.0  0.5252756552495124  0.445331549996441  0.05237052383998542  1.0000
  C   C8        1.0  0.6189869669164288  0.4453315227890367  0.05237061026142575  1.0000
  H   H1        1.0  0.653832904452609  0.40122057643470876  0.8244686350914783  1.0000
  H   H2        1.0  0.4887292489259524  0.4012207481576421  0.8244686318971697  1.0000
  H   H3        1.0  0.4898176795204437  0.457685834690796  0.11619963510440741  1.0000
  H   H4        1.0  0.654921268059786  0.457685756375078  0.11619963955826916  1.0000
  C   C9        1.0  0.0718295805697296  0.06170296779228114  0.9703381235320947  1.0000
  C   C10       1.0  0.11143334662441934  0.9829474061164939  0.044472478249847666  1.0000
  C   C11       1.0  0.11143333276863526  0.8520651703829567  0.04447243557123669  1.0000
  C   C12       1.0  0.07182956567988352  0.7971933694399042  0.970338163885518  1.0000
  C   C13       1.0  0.03225858335795007  0.8759340256103291  0.8962650718772276  1.0000
  C   C14       1.0  0.032258597150963686  0.006826281541126643  0.8962651097639865  1.0000
  H   H5        1.0  0.14247669990160317  0.022397716535485834  0.10258245533197374  1.0000
  H   H6        1.0  0.14247658969851107  0.7938936888833399  0.10258243884261642  1.0000
  H   H7        1.0  0.0012111824189386974  0.8365296924266494  0.8381475074271294  1.0000
  H   H8        1.0  0.0012111589085164213  0.0649541318949026  0.8381474998366958  1.0000
  C   C15       1.0  0.07080472465200366  0.4451347920531175  0.6962130054164867  1.0000
  C   C16       1.0  0.11957544848731083  0.5193199341874701  0.6266698622076521  1.0000
  C   C17       1.0  0.12154556278860046  0.488365608268704  0.5350251910058335  1.0000
  C   C18       1.0  0.07485185025626451  0.38253312129869776  0.5109174682015323  1.0000
  C   C19       1.0  0.026152411074195532  0.3083662509077832  0.5805530563150365  1.0000
  C   C20       1.0  0.024121020691285636  0.3393768042351731  0.6721853641024063  1.0000
  C   C21       1.0  0.07697185981362203  0.3495830796081678  0.4135358399807147  1.0000
  C   C22       1.0  0.07081643855369602  0.44435540126820294  0.3368962104993676  1.0000
  C   C23       1.0  0.07285438929966048  0.41376149184563094  0.24446330034185348  1.0000
  C   C24       1.0  0.08116390970530812  0.28678193271525854  0.22935474173058112  1.0000
  C   C25       1.0  0.08725793151234607  0.19232299138101605  0.3050399750295085  1.0000
  C   C26       1.0  0.08516369464079859  0.22320812206528262  0.39656077826645664  1.0000
  H   H9        1.0  0.15647260186199408  0.601223127443065  0.6430634059663355  1.0000
  H   H10       1.0  0.16064207082365245  0.5463714610585959  0.4832484752859287  1.0000
  H   H11       1.0  0.9885891738891801  0.2271804951052132  0.5638912641018861  1.0000
  H   H12       1.0  0.9857438328952121  0.2805510426364455  0.7241152117737928  1.0000
  H   H13       1.0  0.06320599626957503  0.5418109348865334  0.3493387946503337  1.0000
  H   H14       1.0  0.08297350305429002  0.26027820501983534  0.1590714810119713  1.0000
  H   H15       1.0  0.09388205581274268  0.09475394379803004  0.29270588354833643  1.0000
  H   H16       1.0  0.09115377977342809  0.14840097901788601  0.45406551077293  1.0000
  Zn  Zn1       1.0  0.9736694525883729  0.4294495480623259  0.9703395022092374  1.0000
  Zn  Zn2       1.0  0.16998110364620267  0.429446180144733  0.9703363554894482  1.0000
  C   C27       1.0  0.07246497643528543  0.4147028118241296  0.1408322393630974  1.0000
  C   C28       1.0  0.07118772385889717  0.4441944912066218  0.7998437099232486  1.0000
  C   C29       1.0  0.07181104141913379  0.6583828696792722  0.9666182809082171  1.0000
  C   C30       1.0  0.07184159207371922  0.20051292592145087  0.9740577181473329  1.0000
  O   O1        1.0  0.14581551038134216  0.44387217613127283  0.8346219268698377  1.0000
  O   O2        1.0  0.1468331897187361  0.41502164136914477  0.1060513654111992  1.0000
  O   O3        1.0  0.14630412826639627  0.6117963143148735  0.9653723613823926  1.0000
  O   O4        1.0  0.14634450458414053  0.24709751615041525  0.975300860907532  1.0000
  O   O5        1.0  0.9973059846588849  0.611798212059437  0.9653749967873178  1.0000
  O   O6        1.0  0.9978350459210035  0.41502504654653016  0.10605395104308389  1.0000
  O   O7        1.0  0.9968173624472795  0.44387560189305175  0.8346233901785246  1.0000
  O   O8        1.0  0.9973463569080693  0.2471009289501163  0.9753023942034952  1.0000
