data_image0
_chemical_formula_structural       NC9NC5H8C7NC2NH8C7ONH5Zn2C4O8
_chemical_formula_sum              "N5 C34 H21 O9 Zn2"
_cell_length_a       17.807436237873137
_cell_length_b       9.273995741505848
_cell_length_c       10.297855452804894
_cell_angle_alpha    85.68463501801465
_cell_angle_beta     89.38396818287444
_cell_angle_gamma    88.97465214434487

_space_group_name_H-M_alt    "P 1"
_space_group_IT_number       1

loop_
  _space_group_symop_operation_xyz
  'x, y, z'

loop_
  _atom_site_type_symbol
  _atom_site_label
  _atom_site_symmetry_multiplicity
  _atom_site_fract_x
  _atom_site_fract_y
  _atom_site_fract_z
  _atom_site_occupancy
  N   N1        1.0  0.7156996117955865  0.5411379838984143  0.5602036624312781  1.0000
  C   C1        1.0  0.6549057158466581  0.5020769258233988  0.5490925894871288  1.0000
  C   C2        1.0  0.5792847911464006  0.4534892712132765  0.5352716213035975  1.0000
  C   C3        1.0  0.5607811742407257  0.37424891973224134  0.43007592562289254  1.0000
  C   C4        1.0  0.4873565148669277  0.3269503070887645  0.4165737438494833  1.0000
  C   C5        1.0  0.4313845330598924  0.3584729505459885  0.5082338876619767  1.0000
  C   C6        1.0  0.3533537178722125  0.3083342483744939  0.49396693285870225  1.0000
  C   C7        1.0  0.2916567888493646  0.3990845428387868  0.5201083961587958  1.0000
  C   C8        1.0  0.2180886277455891  0.35156052597236487  0.506619407578303  1.0000
  C   C9        1.0  0.15535743041685066  0.44529843804277197  0.5331313468722378  1.0000
  N   N2        1.0  0.104934501707049  0.5206572337702517  0.5544462053204149  1.0000
  C   C10       1.0  0.2056323334858076  0.21299983249552465  0.4669629777237816  1.0000
  C   C11       1.0  0.2664718117749167  0.1222341633342241  0.44081308963420573  1.0000
  C   C12       1.0  0.3399182334531854  0.1693202643761531  0.4540985473904014  1.0000
  C   C13       1.0  0.4505824484583139  0.4382620308146571  0.6136500498404641  1.0000
  C   C14       1.0  0.5240588702976348  0.485349339553661  0.6269960907274212  1.0000
  H   H1        1.0  0.6030494012597286  0.3493145223355398  0.3582949735366421  1.0000
  H   H2        1.0  0.474134432438546  0.26738732161583667  0.33350754774899527  1.0000
  H   H3        1.0  0.3007259566682386  0.5072724529908976  0.549226495246924  1.0000
  H   H4        1.0  0.14896770320458247  0.17521935289037646  0.4562838146221911  1.0000
  H   H5        1.0  0.2567092251170737  0.014957126168035026  0.41049632849006423  1.0000
  H   H6        1.0  0.3861733900418023  0.09634184248518653  0.43488762302174044  1.0000
  H   H7        1.0  0.4090278236326369  0.46259752226145356  0.6867244483021699  1.0000
  H   H8        1.0  0.5378165740262897  0.5462677302180264  0.7090234075736658  1.0000
  C   C15       1.0  0.9080745249777575  0.10752697966723357  0.556409249880728  1.0000
  C   C16       1.0  0.921272097362679  0.19011109534502424  0.4387463216623875  1.0000
  C   C17       1.0  0.9411897450380174  0.12398920259860914  0.32585598504102015  1.0000
  C   C18       1.0  0.9487405323410675  0.9731452259715958  0.32740006301235836  1.0000
  C   C19       1.0  0.9339659367835883  0.8893668808177843  0.44401029321256313  1.0000
  C   C20       1.0  0.912566703187886  0.9542567441479745  0.5582517375978127  1.0000
  C   C21       1.0  0.9707653922973735  0.9050324463527502  0.2063695370663359  1.0000
  N   N3        1.0  0.9735119846219885  0.9792149867810308  0.08829951107535661  1.0000
  C   C22       1.0  0.9960475221223185  0.8801711527769588  0.006273320423568096  1.0000
  C   C23       1.0  0.0067579972599898196  0.7486683078422345  0.0750706633349123  1.0000
  N   N4        1.0  0.9908903664864934  0.7644568372012395  0.2008949870900725  1.0000
  H   H9        1.0  0.8471499155275275  0.37526708101608275  0.7442523468596081  1.0000
  H   H10       1.0  0.9180044802333776  0.30712841763822274  0.43460527279449673  1.0000
  H   H11       1.0  0.9517978403121681  0.1916627468441119  0.23746133953870865  1.0000
  H   H12       1.0  0.9365089884994914  0.7726703201929975  0.4457727417540447  1.0000
  H   H13       1.0  0.9135299231494571  0.6560975025852419  0.7742429156546229  1.0000
  H   H14       1.0  0.004366413177456559  0.9027923589268587  0.9025897871657103  1.0000
  H   H15       1.0  0.025207600987545264  0.6485999063238104  0.03629195680920838  1.0000
  H   H16       1.0  0.9949653804348438  0.6836743325224762  0.27676115983466043  1.0000
  C   C24       1.0  0.910350836300798  0.5310336550333674  0.17588837179517247  1.0000
  C   C25       1.0  0.8337114128318589  0.5698328823785677  0.17371123199098903  1.0000
  C   C26       1.0  0.7946676949053987  0.5882789511817057  0.05560893812044965  1.0000
  C   C27       1.0  0.8336183708840833  0.5695133681594147  0.9384789644875396  1.0000
  C   C28       1.0  0.9102903818981957  0.5307500781080592  0.9387726249977525  1.0000
  C   C29       1.0  0.9481075557072909  0.5114337447033044  0.05794565739014579  1.0000
  C   C30       1.0  0.7137794021816786  0.6295980670257249  0.05588497948855098  1.0000
  O   O1        1.0  0.6863132636836111  0.6925784930333778  0.15023946482267125  1.0000
  N   N5        1.0  0.665561675070443  0.5980343005311495  0.9518973021954671  1.0000
  H   H17       1.0  0.8040854829302408  0.5845397280420377  0.2643367858427563  1.0000
  H   H18       1.0  0.8048563231319456  0.5876555959136944  0.8465506656522971  1.0000
  H   H19       1.0  0.007173825417645882  0.4815271906778538  0.058870197805296565  1.0000
  H   H20       1.0  0.6096595597539837  0.6340087737368223  0.9517122371845952  1.0000
  H   H21       1.0  0.6830631719620605  0.531322323494495  0.8798024860649138  1.0000
  Zn  Zn1       1.0  0.8280243708902646  0.5352238320974281  0.5585496885403143  1.0000
  Zn  Zn2       1.0  0.9926096612205433  0.526559629534818  0.5561108323002535  1.0000
  C   C31       1.0  0.9102696685510282  0.525060328980095  0.7945587056286632  1.0000
  C   C32       1.0  0.9103661704667775  0.5367248570786165  0.32010192002898985  1.0000
  C   C33       1.0  0.9117141291661623  0.7942089646303951  0.5527273809222857  1.0000
  C   C34       1.0  0.9089216444951115  0.2675744922147323  0.5619333110502955  1.0000
  O   O2        1.0  0.9728305433207877  0.53534056702617  0.3675757573037237  1.0000
  O   O3        1.0  0.9727217170727457  0.5198676022796151  0.7452334566144997  1.0000
  O   O4        1.0  0.9738872951994493  0.7372085732384024  0.5499529666562069  1.0000
  O   O5        1.0  0.9716649090947062  0.3179996093734727  0.5628561507233126  1.0000
  O   O6        1.0  0.8489690668512286  0.7437838552170126  0.5518043709426883  1.0000
  O   O7        1.0  0.8478034979161837  0.5264446164300486  0.7470847954114861  1.0000
  O   O8        1.0  0.8479123240713757  0.5419175315142275  0.3694255342901827  1.0000
  O   O9        1.0  0.8467466897797986  0.32457656351367925  0.5647060250739084  1.0000
