data_image0
_chemical_formula_structural       NC8NC6H8C6OCH6C10IC2H7Zn2C4O8
_chemical_formula_sum              "N2 C37 H21 O9 I1 Zn2"
_cell_length_a       17.457602349358154
_cell_length_b       10.300308824427217
_cell_length_c       10.299773630820606
_cell_angle_alpha    85.5486203950951
_cell_angle_beta     92.88150931118494
_cell_angle_gamma    91.68596496717343

_space_group_name_H-M_alt    "P 1"
_space_group_IT_number       1

loop_
  _space_group_symop_operation_xyz
  'x, y, z'

loop_
  _atom_site_type_symbol
  _atom_site_label
  _atom_site_symmetry_multiplicity
  _atom_site_fract_x
  _atom_site_fract_y
  _atom_site_fract_z
  _atom_site_occupancy
  N   N1        1.0  0.7223245388473413  0.45314921552303855  0.6266347106340169  1.0000
  C   C1        1.0  0.6612469122528123  0.40723071248298054  0.6160144544950394  1.0000
  C   C2        1.0  0.585263762134456  0.3501138057009102  0.6028123984517877  1.0000
  C   C3        1.0  0.5267383491115627  0.3902494767236203  0.6777145974435421  1.0000
  C   C4        1.0  0.4521932742365451  0.335250484376215  0.6651271895469892  1.0000
  C   C5        1.0  0.39007715715624874  0.3776277679296905  0.7444514466883823  1.0000
  C   C6        1.0  0.3155271829354098  0.3961120552527559  0.6886892496284713  1.0000
  C   C7        1.0  0.25700177628551074  0.436063781107472  0.7636993854301777  1.0000
  C   C8        1.0  0.18101351764163037  0.45515456215471745  0.7057217671880123  1.0000
  N   N2        1.0  0.11993187432812812  0.4704971708489276  0.6591079125533608  1.0000
  C   C9        1.0  0.272534203545794  0.45777418554291804  0.8949802637250486  1.0000
  C   C10       1.0  0.3462994869659114  0.4396787358807338  0.9511300998139713  1.0000
  C   C11       1.0  0.4048133095870107  0.3999069092017004  0.8765777066242075  1.0000
  C   C12       1.0  0.43746219497426775  0.23943889573976015  0.5762045852794502  1.0000
  C   C13       1.0  0.49597590580855444  0.19958176007664694  0.5017024199551217  1.0000
  C   C14       1.0  0.5697362420943674  0.25469294938162435  0.5148397931888431  1.0000
  H   H1        1.0  0.5390845023354705  0.46541757245904547  0.7443531472130898  1.0000
  H   H2        1.0  0.30317704871108847  0.38117448360816025  0.5866624553312039  1.0000
  H   H3        1.0  0.22767577039185768  0.48863643575227517  0.9538195862784867  1.0000
  H   H4        1.0  0.35813586084015675  0.45617396732877924  0.05278378106735226  1.0000
  H   H5        1.0  0.4613016558289327  0.3849019422162016  0.9226831006268208  1.0000
  H   H6        1.0  0.3809778333164134  0.1941100280416883  0.5655482689762099  1.0000
  H   H7        1.0  0.4841434776081712  0.125530413643286  0.4338656467672528  1.0000
  H   H8        1.0  0.6145947627697584  0.22296090784194497  0.4565115158154142  1.0000
  C   C15       1.0  0.9211390925183134  0.08048058785137122  0.6428403384597343  1.0000
  C   C16       1.0  0.9462611227819595  0.09060737419105577  0.5149111299822453  1.0000
  C   C17       1.0  0.9589020129144651  0.9781236188085081  0.4505400249842781  1.0000
  C   C18       1.0  0.9462315632443318  0.8554479921342983  0.5150620565448967  1.0000
  C   C19       1.0  0.9211246694706368  0.8431560664457457  0.6429141000950132  1.0000
  C   C20       1.0  0.9087090446008768  0.9562958161133908  0.7061381314761477  1.0000
  O   O1        1.0  0.9839781899716313  0.9839302173151159  0.3228448492299194  1.0000
  C   C21       1.0  0.9992120838391515  0.10148916363553816  0.24526987862855873  1.0000
  H   H9        1.0  0.9559055104919892  0.1858965101919363  0.4657985918863574  1.0000
  H   H10       1.0  0.9561644166281392  0.7695977754830293  0.4644811556152013  1.0000
  H   H11       1.0  0.8893373880415892  0.9476833800546668  0.8047847191238261  1.0000
  H   H12       1.0  0.9463738672466083  0.15926882303570933  0.22982326902205275  1.0000
  H   H13       1.0  0.018112239608857994  0.07720655370060459  0.1490245542749542  1.0000
  H   H14       1.0  0.04566463477623486  0.15929819211887875  0.2932354942249784  1.0000
  C   C22       1.0  0.9211116339170061  0.4619355861967184  0.26150546566265165  1.0000
  C   C23       1.0  0.9984623410094348  0.5034997639130233  0.26387419310519955  1.0000
  C   C24       1.0  0.03767694954801472  0.5244414149085704  0.14794686501443932  1.0000
  C   C25       1.0  0.9985031949256301  0.5032627724262653  0.028609663897203767  1.0000
  C   C26       1.0  0.9211521027244267  0.4617011303512164  0.02424895103373026  1.0000
  C   C27       1.0  0.8828895507642304  0.44126960793544834  0.1412136543311875  1.0000
  C   C28       1.0  0.11950667606445409  0.5684114320241643  0.1515063187386807  1.0000
  C   C29       1.0  0.17185771646980286  0.5146852807353772  0.07232868660497416  1.0000
  C   C30       1.0  0.2488552610464361  0.556195758100697  0.07587847008897253  1.0000
  C   C31       1.0  0.2744879357878296  0.6516900789582611  0.1582459574101016  1.0000
  I   I1        1.0  0.39066944857979835  0.7141202934114701  0.16329787595734646  1.0000
  C   C32       1.0  0.22302501773097674  0.7057570014069539  0.23726099194236627  1.0000
  C   C33       1.0  0.14598438863683527  0.6644957903923201  0.2341120689708025  1.0000
  H   H15       1.0  0.028692283713725113  0.5179698020835755  0.3562575380621622  1.0000
  H   H16       1.0  0.02817264210666394  0.5209784528363752  0.9388320492146435  1.0000
  H   H17       1.0  0.8232168388822128  0.40920577103253003  0.13861786869622117  1.0000
  H   H18       1.0  0.15347026022899843  0.43942780594443803  0.00898144187539374  1.0000
  H   H19       1.0  0.2885933719233347  0.5138467191567728  0.014811138334218875  1.0000
  H   H20       1.0  0.2426281214739967  0.7799929222324273  0.3009087699748141  1.0000
  H   H21       1.0  0.10693246500978563  0.708888599609536  0.2949615661418201  1.0000
  Zn  Zn1       1.0  0.8370654275720747  0.45815197592485757  0.6360132734357771  1.0000
  Zn  Zn2       1.0  0.005190972119306416  0.4654837600891066  0.6497399813284803  1.0000
  C   C34       1.0  0.9211428457798893  0.4565720202746446  0.8800734879277643  1.0000
  C   C35       1.0  0.9211153898129538  0.46706543427012165  0.40568004435761407  1.0000
  C   C36       1.0  0.9211231587932573  0.6989956066299294  0.6377246355272996  1.0000
  C   C37       1.0  0.9211350194633013  0.22464028519621926  0.6480289611623391  1.0000
  O   O2        1.0  0.9849194183952393  0.4715637666731047  0.4592755635786063  1.0000
  O   O3        1.0  0.9849422153473667  0.4576373628660523  0.8368958484393455  1.0000
  O   O4        1.0  0.9849254578365192  0.6533974367897544  0.64119736537453  1.0000
  O   O5        1.0  0.984936118530884  0.27580369956708184  0.6549739445849305  1.0000
  O   O6        1.0  0.8573202237874997  0.6478320339463202  0.630779305488244  1.0000
  O   O7        1.0  0.857336981261634  0.45207352024067216  0.8264777194577171  1.0000
  O   O8        1.0  0.8573141842785282  0.4659998792771173  0.44885587318443054  1.0000
  O   O9        1.0  0.8573308844163784  0.27023980285285276  0.6445543515581635  1.0000
