data_image0
_chemical_formula_structural       NC5NC4H6C9H6C9H8Zn2C4O8
_chemical_formula_sum              "N2 C31 H20 Zn2 O8"
_cell_length_a       13.854160002989762
_cell_length_b       9.275152443626249
_cell_length_c       9.275155815604963
_cell_angle_alpha    85.85171904572837
_cell_angle_beta     90.35750573089034
_cell_angle_gamma    90.57354205828562

_space_group_name_H-M_alt    "P 1"
_space_group_IT_number       1

loop_
  _space_group_symop_operation_xyz
  'x, y, z'

loop_
  _atom_site_type_symbol
  _atom_site_label
  _atom_site_symmetry_multiplicity
  _atom_site_fract_x
  _atom_site_fract_y
  _atom_site_fract_z
  _atom_site_occupancy
  N   N1        1.0  0.9127336289203244  0.5650499885136299  0.4048504825368149  1.0000
  C   C1        1.0  0.840319583013191  0.5897596419551725  0.34573206142617807  1.0000
  C   C2        1.0  0.7502354866747412  0.6204991153611877  0.27218648290917113  1.0000
  C   C3        1.0  0.6627707404323876  0.5916262366557388  0.3439932700293633  1.0000
  C   C4        1.0  0.575093074301225  0.620499129494607  0.2721864596930408  1.0000
  C   C5        1.0  0.48521144105134  0.589759495388495  0.3457321535324749  1.0000
  N   N2        1.0  0.41296005789741147  0.5650499250003072  0.404850482668847  1.0000
  C   C6        1.0  0.5749169252363747  0.6788516036545991  0.1285897639665181  1.0000
  C   C7        1.0  0.6623628825927705  0.7098742458458052  0.05667215878174003  1.0000
  C   C8        1.0  0.6621070545799546  0.7683689850205615  0.9015885123679128  1.0000
  C   C9        1.0  0.7499940138809419  0.678851601551563  0.12858967371547236  1.0000
  H   H1        1.0  0.6629316372593917  0.5463512351228001  0.45513485887275507  1.0000
  H   H2        1.0  0.5069540633444827  0.7001642413926579  0.07287909897462153  1.0000
  H   H3        1.0  0.7273165254948897  0.8363415778681639  0.8775731047729126  1.0000
  H   H4        1.0  0.5976080481243374  0.8363415803059268  0.8775731698349789  1.0000
  H   H5        1.0  0.6611986353606618  0.6772061731670715  0.8303640191651138  1.0000
  H   H6        1.0  0.81777702281717  0.700164353168339  0.07287901318230694  1.0000
  C   C10       1.0  0.16001032224417933  0.14143033671254426  0.4063218806712341  1.0000
  C   C11       1.0  0.12467175789301362  0.22311483845184157  0.2838826722670866  1.0000
  C   C12       1.0  0.0982957069407644  0.15659884268837532  0.15915109711828013  1.0000
  C   C13       1.0  0.1068419014562687  0.007215874053282386  0.15438908200582843  1.0000
  C   C14       1.0  0.14028859347261768  0.9238343104558485  0.2757935203600117  1.0000
  C   C15       1.0  0.16569259359943334  0.9886586079289511  0.4033915855559156  1.0000
  C   C16       1.0  0.08014385015604941  0.9389534974255419  0.025221691418012553  1.0000
  C   C17       1.0  0.05779042882868567  0.8817662909489078  0.9170642538116297  1.0000
  C   C18       1.0  0.03066896032115472  0.8123677299371387  0.7858341719523185  1.0000
  H   H7        1.0  0.2999246797437931  0.22556162691761128  0.6941514921733642  1.0000
  H   H8        1.0  0.1195853151059103  0.33962841928828924  0.2834293306957112  1.0000
  H   H9        1.0  0.0720934994387432  0.22203440922809037  0.06581000592119168  1.0000
  H   H10       1.0  0.1443354935763203  0.8074896405154425  0.2717730339268112  1.0000
  H   H11       1.0  0.25681156595301147  0.6950553379622962  0.6002573758616583  1.0000
  H   H12       1.0  0.07103602592110646  0.8639125093676299  0.6925457117661997  1.0000
  C   C19       1.0  0.16105847457526568  0.561398127771729  0.9816381277356824  1.0000
  C   C20       1.0  0.08602082978436365  0.6316889286147149  0.049209881903771846  1.0000
  C   C21       1.0  0.017512625162552583  0.711567032632894  0.9676488371933686  1.0000
  C   C22       1.0  0.02277286368555775  0.7228269958740408  0.817028095868352  1.0000
  C   C23       1.0  0.0958629346849655  0.6517611337706836  0.7477506574334213  1.0000
  C   C24       1.0  0.1646444135987295  0.5686907385305675  0.8280753309727427  1.0000
  C   C25       1.0  0.9523361597842387  0.8060753315012623  0.7331427761844447  1.0000
  C   C26       1.0  0.8933581336113663  0.8757844439255238  0.6628736269216904  1.0000
  C   C27       1.0  0.8217989091929133  0.960364665386174  0.5776024188752946  1.0000
  H   H13       1.0  0.384316954508715  0.44500996727821596  0.09499853794848101  1.0000
  H   H14       1.0  0.08165753347372995  0.6276901215725037  0.1660152501494374  1.0000
  H   H15       1.0  0.9609164179733731  0.7657872084919928  0.02227433469240192  1.0000
  H   H16       1.0  0.09769184566046052  0.6585445100791278  0.6305809003738023  1.0000
  H   H17       1.0  0.3135717565292712  0.48515087337836404  0.5547818896536203  1.0000
  H   H18       1.0  0.8414409397593121  0.9645094104740011  0.46158909721979885  1.0000
  H   H19       1.0  0.7495659498324341  0.9089952345083694  0.5928063631943412  1.0000
  H   H20       1.0  0.820103194427167  0.07175387570936474  0.6137218897964472  1.0000
  Zn  Zn1       1.0  0.0570881857846166  0.5650461797925292  0.40485882751889335  1.0000
  Zn  Zn2       1.0  0.26860547317958505  0.5650420309936904  0.4048540146958748  1.0000
  C   C28       1.0  0.16392591237925158  0.5615654592192383  0.6681004866070881  1.0000
  C   C29       1.0  0.16177006915401582  0.5685245728978634  0.14161249071389737  1.0000
  C   C30       1.0  0.16458921825475806  0.8284649217071085  0.3982024312971493  1.0000
  C   C31       1.0  0.16110667980382914  0.3016233779094663  0.4115106288564374  1.0000
  O   O1        1.0  0.24227855282058608  0.5709084051031789  0.1952995436387135  1.0000
  O   O2        1.0  0.24395414661211445  0.559177386334105  0.6144093697546575  1.0000
  O   O3        1.0  0.244488698769894  0.7747020906298782  0.396464775355168  1.0000
  O   O4        1.0  0.24174392809769582  0.35538371019726545  0.4132440299440283  1.0000
  O   O5        1.0  0.0839496586860149  0.7747045005918758  0.39646881226479613  1.0000
  O   O6        1.0  0.08341511782242406  0.5591815287995499  0.6144133238257408  1.0000
  O   O7        1.0  0.08173951641712104  0.5709124823700868  0.19530176514188913  1.0000
  O   O8        1.0  0.0812048920788506  0.35538777807723465  0.4132463595354352  1.0000
