data_image0
_chemical_formula_structural       NC9NC4H8C8NH7C8H6Zn2C4O8
_chemical_formula_sum              "N3 C33 H21 Zn2 O8"
_cell_length_a       16.32274767691083
_cell_length_b       9.274263428431858
_cell_length_c       9.275144076552241
_cell_angle_alpha    85.91390011552684
_cell_angle_beta     89.93057160658579
_cell_angle_gamma    90.1410557844374

_space_group_name_H-M_alt    "P 1"
_space_group_IT_number       1

loop_
  _space_group_symop_operation_xyz
  'x, y, z'

loop_
  _atom_site_type_symbol
  _atom_site_label
  _atom_site_symmetry_multiplicity
  _atom_site_fract_x
  _atom_site_fract_y
  _atom_site_fract_z
  _atom_site_occupancy
  N   N1        1.0  0.7737027998471182  0.5570825387244749  0.3971204277305067  1.0000
  C   C1        1.0  0.7207764314677505  0.5039792007645927  0.33690686552342486  1.0000
  C   C2        1.0  0.6549889889684208  0.4380244414989507  0.26212113976745677  1.0000
  C   C3        1.0  0.6655380038372718  0.3478100674609528  0.15982281164132828  1.0000
  C   C4        1.0  0.5856825793886469  0.30378500177329526  0.10990463091327406  1.0000
  C   C5        1.0  0.5274664245770327  0.36821472806348154  0.18296705659072465  1.0000
  C   C6        1.0  0.43733949393413196  0.3511865576383606  0.16366123011127187  1.0000
  C   C7        1.0  0.3825790959203396  0.4262835078615023  0.2488120003855674  1.0000
  C   C8        1.0  0.2977086710412722  0.4117304130410977  0.2323120174378408  1.0000
  C   C9        1.0  0.24256202920947154  0.4891359757288806  0.32007962712113325  1.0000
  N   N2        1.0  0.19824292695073992  0.5513573078185163  0.39062991986632345  1.0000
  C   C10       1.0  0.2665442577667032  0.3219589179740061  0.13052424535012097  1.0000
  C   C11       1.0  0.3199838458479587  0.2469614417715853  0.045486642261713284  1.0000
  C   C12       1.0  0.4046911127709478  0.26112254227975673  0.06154201812723702  1.0000
  C   C13       1.0  0.5662656967192717  0.46216033619184116  0.28949352346695467  1.0000
  H   H1        1.0  0.7240552267038872  0.3127299341599706  0.1200413100120543  1.0000
  H   H2        1.0  0.5765670072053567  0.23005290488920974  0.026296129815264635  1.0000
  H   H3        1.0  0.405471162302067  0.49636529447917965  0.3282746345343681  1.0000
  H   H4        1.0  0.2010191365017645  0.3099701844651179  0.11693193110665367  1.0000
  H   H5        1.0  0.29570280007203703  0.17751482225007353  0.9667444791557255  1.0000
  H   H6        1.0  0.4438049686857515  0.2011293919197135  0.9935178471729738  1.0000
  H   H7        1.0  0.5497724212339712  0.42435370411971857  0.40217385452493715  1.0000
  H   H8        1.0  0.5500796634866747  0.5775626239666416  0.26480261986309794  1.0000
  C   C14       1.0  0.9833859213657221  0.13067347504137716  0.3942210427340278  1.0000
  C   C15       1.0  0.9721929810633734  0.21326659828902406  0.26265926125065997  1.0000
  C   C16       1.0  0.969040208418266  0.1474885479755108  0.13216703423830745  1.0000
  C   C17       1.0  0.9776682991681568  0.9975761770171796  0.12999871143871777  1.0000
  C   C18       1.0  0.9866587147370213  0.9135019993778313  0.2607105853728069  1.0000
  C   C19       1.0  0.9885676500514655  0.9777552543573379  0.39354168482986407  1.0000
  C   C20       1.0  0.9730474379377012  0.9266710957431088  0.989430735183296  1.0000
  C   C21       1.0  0.8879054674441933  0.8886598253780283  0.9586969264687588  1.0000
  N   N3        1.0  0.8207047694158217  0.8586570600209863  0.934448917774282  1.0000
  H   H9        1.0  0.05560461113462112  0.2102809677127535  0.7254374937100452  1.0000
  H   H10       1.0  0.967653695983893  0.32993027066522407  0.2603678713445108  1.0000
  H   H11       1.0  0.9606316680024323  0.21383405943941994  0.03240389346530791  1.0000
  H   H12       1.0  0.9901871092258061  0.7969516280726084  0.2587579792074053  1.0000
  H   H13       1.0  0.034010994636147984  0.6812194999622251  0.618541641969492  1.0000
  H   H14       1.0  0.010920449322249002  0.8270839177293419  0.9944298756857436  1.0000
  H   H15       1.0  0.9968276771574939  0.000538597837017594  0.8993657364895391  1.0000
  C   C22       1.0  0.9840291592136274  0.5512889251645812  0.970627720038954  1.0000
  C   C23       1.0  0.9311931494512377  0.6460720586876612  0.03734257577977962  1.0000
  C   C24       1.0  0.8849740842762119  0.7479127504198412  0.9550423160212799  1.0000
  C   C25       1.0  0.8907565055239888  0.7570523406903844  0.8045169032909469  1.0000
  C   C26       1.0  0.9418912030246379  0.6621863715311578  0.7360722999517093  1.0000
  C   C27       1.0  0.987924407430507  0.5571397985172326  0.8171350314904595  1.0000
  C   C28       1.0  0.8433718930749263  0.8628739016848644  0.7198617392299553  1.0000
  C   C29       1.0  0.8037016323830837  0.9514713943243178  0.6489693408034833  1.0000
  H   H16       1.0  0.1531697640090668  0.35965678280686847  0.08678002505326265  1.0000
  H   H17       1.0  0.9270807093594087  0.643702739443737  0.15407728947253663  1.0000
  H   H18       1.0  0.8452800503299501  0.8205701783867045  0.009036466220780697  1.0000
  H   H19       1.0  0.9442764081099602  0.6681479654224924  0.6189469769595597  1.0000
  H   H20       1.0  0.100002962245207  0.4235585836037752  0.5457009445168395  1.0000
  H   H21       1.0  0.7688793752817825  0.02924109517514539  0.5867390560586876  1.0000
  Zn  Zn1       1.0  0.8962159307869337  0.5554265472229257  0.3952557341606355  1.0000
  Zn  Zn2       1.0  0.07572978411695663  0.5530015453525865  0.39250643058102197  1.0000
  C   C30       1.0  0.9871511443509037  0.5502879898517596  0.6571316235071827  1.0000
  C   C31       1.0  0.9847965426218899  0.5581418970633012  0.1306306512183577  1.0000
  C   C32       1.0  0.9875575426401926  0.8175990897231566  0.387926598817967  1.0000
  C   C33       1.0  0.9843900728304817  0.2908290656862593  0.39983575507843616  1.0000
  O   O1        1.0  0.05317861680708114  0.5595152491192896  0.18328575523324542  1.0000
  O   O2        1.0  0.05501592261025978  0.5470730265442827  0.6023894476580469  1.0000
  O   O3        1.0  0.055343182912953114  0.7629301430649953  0.3850044984135126  1.0000
  O   O4        1.0  0.052851294814298955  0.34365814299679553  0.4006705973385909  1.0000
  O   O5        1.0  0.9190943588302986  0.764769950407769  0.3870915683336862  1.0000
  O   O6        1.0  0.9187671087704303  0.5489145662217537  0.6044764393379771  1.0000
  O   O7        1.0  0.9169297947403193  0.5613567265577314  0.18537101406754242  1.0000
  O   O8        1.0  0.9166024731783324  0.34549961086607084  0.40275596424269694  1.0000
