data_image0
_chemical_formula_structural       NC8NH4C9H10C6NCOH5Zn2C4O8
_chemical_formula_sum              "N3 C28 H19 O9 Zn2"
_cell_length_a       13.859017124695912
_cell_length_b       10.297183801781406
_cell_length_c       9.27373355559583
_cell_angle_alpha    86.14735742997276
_cell_angle_beta     90.01104731116409
_cell_angle_gamma    89.9976557662862

_space_group_name_H-M_alt    "P 1"
_space_group_IT_number       1

loop_
  _space_group_symop_operation_xyz
  'x, y, z'

loop_
  _atom_site_type_symbol
  _atom_site_label
  _atom_site_symmetry_multiplicity
  _atom_site_fract_x
  _atom_site_fract_y
  _atom_site_fract_z
  _atom_site_occupancy
  N   N1        1.0  0.9083414584493658  0.4063036756524616  0.4095490465740661  1.0000
  C   C1        1.0  0.8359803481139402  0.38516972105304675  0.35340201952456396  1.0000
  C   C2        1.0  0.7459674236102773  0.3588821645217251  0.2835623337442843  1.0000
  C   C3        1.0  0.6583602373548553  0.3845098563562077  0.35164724017309346  1.0000
  C   C4        1.0  0.5707371036420658  0.35888326310972546  0.28356175394464067  1.0000
  C   C5        1.0  0.570903562640915  0.30762202027145946  0.14737046166446865  1.0000
  C   C6        1.0  0.6583282194635939  0.2820928309451716  0.07954763233768336  1.0000
  C   C7        1.0  0.7457689217322249  0.30761991533589716  0.1473716409665884  1.0000
  C   C8        1.0  0.4807405093060361  0.3851705508523611  0.35340152113579903  1.0000
  N   N2        1.0  0.4083925840009311  0.4063039641623478  0.4095488304395425  1.0000
  H   H1        1.0  0.6583725971261544  0.42418804111158553  0.45706256287952796  1.0000
  H   H2        1.0  0.5036018396418074  0.2874520354621357  0.09378018618497763  1.0000
  H   H3        1.0  0.6583159507316256  0.24249567761070256  0.9743457931210577  1.0000
  H   H4        1.0  0.8130580566654859  0.28744804790826306  0.09378236557194808  1.0000
  C   C9        1.0  0.15837504155637538  0.02483024747423901  0.4097531593692776  1.0000
  C   C10       1.0  0.15554242537913  0.03322359180147916  0.2580935954299888  1.0000
  C   C11       1.0  0.15409097009315897  0.9209072601552059  0.18039396582903766  1.0000
  C   C12       1.0  0.1555310450332561  0.7980468144946476  0.25750578541717073  1.0000
  C   C13       1.0  0.15836825042360061  0.7877675446639983  0.409357176542402  1.0000
  C   C14       1.0  0.15977081202291396  0.9016258035120813  0.4844896123430358  1.0000
  C   C15       1.0  0.15102702871737694  0.9394174495205045  0.016363438517867476  1.0000
  C   C16       1.0  0.09451779579232798  0.8399246397745375  0.9361346652476251  1.0000
  C   C17       1.0  0.2044434854172461  0.840188645999115  0.9315562418158915  1.0000
  H   H5        1.0  0.1594757013851038  0.34913447668143066  0.46819245385749153  1.0000
  H   H6        1.0  0.15444908187465445  0.12788625112802346  0.19954463645245224  1.0000
  H   H7        1.0  0.15446572259966085  0.7098966289919961  0.20058271970300634  1.0000
  H   H8        1.0  0.16195575126775252  0.8944227192435985  0.6014981506645434  1.0000
  H   H9        1.0  0.1637141151305881  0.5611364484197817  0.6961616964929824  1.0000
  H   H10       1.0  0.15004310994210956  0.03962315769932758  0.9636411434745841  1.0000
  H   H11       1.0  0.062328688571253066  0.7569213850641682  0.0017226732443462681  1.0000
  H   H12       1.0  0.06046374125966003  0.8798114928439066  0.8341660851528294  1.0000
  H   H13       1.0  0.2390283317099937  0.7573465678825704  0.9943638558083023  1.0000
  H   H14       1.0  0.23463615868026033  0.8802274189010453  0.8269104449480111  1.0000
  C   C18       1.0  0.15831646191940288  0.40220606387562796  0.9863303019998146  1.0000
  C   C19       1.0  0.069633355909267  0.39474997714483046  0.06028567326507539  1.0000
  C   C20       1.0  0.9818276494353091  0.39782132618948474  0.9853346330897718  1.0000
  C   C21       1.0  0.9826792919408566  0.412571361804029  0.8339792427130766  1.0000
  C   C22       1.0  0.06991155932905291  0.4180890093568288  0.758820885583491  1.0000
  C   C23       1.0  0.15842680961929734  0.41039170702800326  0.8327800861844055  1.0000
  N   N3        1.0  0.8928585432586218  0.39326507893253276  0.06535152281631706  1.0000
  C   C24       1.0  0.8059283933275222  0.33344517244140826  0.01860018472153469  1.0000
  O   O1        1.0  0.8054216247261506  0.2646987070395732  0.911285032290873  1.0000
  H   H15       1.0  0.38569008759919954  0.49240816252686115  0.0825968343867951  1.0000
  H   H16       1.0  0.9160412153247601  0.4212204394889086  0.7733601705803176  1.0000
  H   H17       1.0  0.3123276823975609  0.4656537575768909  0.5476450988174042  1.0000
  H   H18       1.0  0.8925126777451061  0.42780550187515504  0.16875259497042738  1.0000
  H   H19       1.0  0.7399788621041085  0.34433961994820694  0.07901540030008847  1.0000
  Zn  Zn1       1.0  0.05264541571015924  0.4063003711551172  0.4095573131992516  1.0000
  Zn  Zn2       1.0  0.2640886207401645  0.4062967861345179  0.409552390033427  1.0000
  C   C25       1.0  0.15840384664630158  0.40366936008693477  0.6727856194074748  1.0000
  C   C26       1.0  0.1583324987610617  0.4089294376010671  0.14632422437692671  1.0000
  C   C27       1.0  0.15836380519227777  0.6435006126313056  0.40368889306470446  1.0000
  C   C28       1.0  0.15837246808824323  0.1690966250699431  0.415421028369076  1.0000
  O   O2        1.0  0.23857947528555526  0.41117883544822625  0.20001778091468636  1.0000
  O   O3        1.0  0.23863737023151055  0.4014162572884614  0.6190879119330195  1.0000
  O   O4        1.0  0.23860395475128993  0.5950830413087504  0.40179040083142703  1.0000
  O   O5        1.0  0.23861281860036176  0.21751205967691403  0.41731518395141287  1.0000
  O   O6        1.0  0.07812114569477235  0.5950850976152853  0.40179451927536425  1.0000
  O   O7        1.0  0.0781545611466461  0.40141987358431375  0.6190919527216772  1.0000
  O   O8        1.0  0.07809666603936828  0.4111823897188181  0.2000200889594459  1.0000
  O   O9        1.0  0.07813000936439884  0.21751560570109343  0.41731760005513774  1.0000
