data_image0
_chemical_formula_structural       NC12NC2H8C12SCH12C12NH11Zn2C4O8
_chemical_formula_sum              "N3 C43 H31 S1 Zn2 O8"
_cell_length_a       19.240039667572717
_cell_length_b       10.299776766347529
_cell_length_c       10.299774167527172
_cell_angle_alpha    85.57893362728709
_cell_angle_beta     89.99323073403258
_cell_angle_gamma    89.97991714870845

_space_group_name_H-M_alt    "P 1"
_space_group_IT_number       1

loop_
  _space_group_symop_operation_xyz
  'x, y, z'

loop_
  _atom_site_type_symbol
  _atom_site_label
  _atom_site_symmetry_multiplicity
  _atom_site_fract_x
  _atom_site_fract_y
  _atom_site_fract_z
  _atom_site_occupancy
  N   N1        1.0  0.6543011089787695  0.4208419413289159  0.5675961084891492  1.0000
  C   C1        1.0  0.5941527401509166  0.4208420252854305  0.5675960265606892  1.0000
  C   C2        1.0  0.5193347029964366  0.42084214252992647  0.5675958892688733  1.0000
  C   C3        1.0  0.4828665401472501  0.3564075998024683  0.6709995394584094  1.0000
  C   C4        1.0  0.4101958073751177  0.3562967448776342  0.6710860713847557  1.0000
  C   C5        1.0  0.37300246805614695  0.42084223502791357  0.5675956616027209  1.0000
  C   C6        1.0  0.41018480707699073  0.4853879122190936  0.46410544636356327  1.0000
  C   C7        1.0  0.4828555109050168  0.4852768218329105  0.4641921007712475  1.0000
  C   C8        1.0  0.29579737763731884  0.42084215633985456  0.5675955661868057  1.0000
  C   C9        1.0  0.258628170782196  0.30759474371090745  0.6094576267634317  1.0000
  C   C10       1.0  0.1859574681195725  0.3077016162677788  0.6093663118261572  1.0000
  C   C11       1.0  0.1494650907345047  0.4208420271860463  0.5675956270866132  1.0000
  C   C12       1.0  0.07464705358515639  0.42084191351659794  0.5675958757294564  1.0000
  N   N2        1.0  0.014498736727525698  0.4208418727539916  0.5675960841370261  1.0000
  C   C13       1.0  0.185920224195169  0.5339825139157643  0.5258248894632322  1.0000
  C   C14       1.0  0.2585909061110536  0.5340895665444554  0.5257334119494763  1.0000
  H   H1        1.0  0.510585660958871  0.3065211718879586  0.7517341973569915  1.0000
  H   H2        1.0  0.3831065351030795  0.30720871711911113  0.7529362341457632  1.0000
  H   H3        1.0  0.383087548559043  0.5344759670150006  0.38225523275802864  1.0000
  H   H4        1.0  0.5105661615578353  0.5351631495660134  0.38345771864972084  1.0000
  H   H5        1.0  0.2857362019663049  0.2184493528033326  0.6406184835058016  1.0000
  H   H6        1.0  0.1582571480424829  0.21945569545748728  0.6415601431515128  1.0000
  H   H7        1.0  0.15819072082815186  0.622228410193683  0.49363107268618456  1.0000
  H   H8        1.0  0.2856693537321316  0.6232350366148109  0.4945725104423389  1.0000
  C   C15       1.0  0.834468793239315  0.03947678038771296  0.5675944849613186  1.0000
  C   C16       1.0  0.8386367924822917  0.02795522915344572  0.7041015504529214  1.0000
  C   C17       1.0  0.840681834381876  0.9049785480182438  0.7732761254101744  1.0000
  C   C18       1.0  0.8385038928381072  0.792667457260383  0.704116740044326  1.0000
  C   C19       1.0  0.8343377498873575  0.8021970607629778  0.5676089252078031  1.0000
  C   C20       1.0  0.8323431301146864  0.9260407957533427  0.5001119302709292  1.0000
  C   C21       1.0  0.8450834479129812  0.8938539529523502  0.9176851984857304  1.0000
  C   C22       1.0  0.805301178744001  0.8004153422673521  0.9917241909582166  1.0000
  C   C23       1.0  0.8094644861320146  0.7901802513172622  0.12762669764171297  1.0000
  C   C24       1.0  0.8532366615947283  0.8731057349634984  0.19129679381795361  1.0000
  C   C25       1.0  0.8931847056297197  0.9659709633395154  0.11863079746955464  1.0000
  C   C26       1.0  0.8891233127436079  0.9765559399718877  0.9827178762871391  1.0000
  S   S1        1.0  0.858655401189514  0.8595121674440864  0.36567840751139313  1.0000
  C   C27       1.0  0.7888131548400849  0.975579751467108  0.38520615676106257  1.0000
  H   H9        1.0  0.8329079397493395  0.37132049637132264  0.5155790964368894  1.0000
  H   H10       1.0  0.8393439137099352  0.11480191003391528  0.7570572327699115  1.0000
  H   H11       1.0  0.8410232374382328  0.6976692724808619  0.7568762955044352  1.0000
  H   H12       1.0  0.8291281711196353  0.9341606943519493  0.3948025335031729  1.0000
  H   H13       1.0  0.8327155608020942  0.4783745039749368  0.5155982022239354  1.0000
  H   H14       1.0  0.7703167700930595  0.7364373885401484  0.9446124250363442  1.0000
  H   H15       1.0  0.7783870927236807  0.718134397460731  0.18334541236522883  1.0000
  H   H16       1.0  0.9274293035607339  0.030005261115996  0.16733141855142855  1.0000
  H   H17       1.0  0.9210778225450743  0.04823325949518841  0.9284121334495757  1.0000
  H   H18       1.0  0.8027296766496307  0.07189504769584354  0.3363309417162118  1.0000
  H   H19       1.0  0.7807530640414474  0.9862901791218595  0.49048016900967917  1.0000
  H   H20       1.0  0.7399091479126004  0.9400348374855155  0.3430861834880444  1.0000
  C   C28       1.0  0.8344269271304834  0.42072240459946575  0.18624960085290265  1.0000
  C   C29       1.0  0.7663662671295306  0.37142100441158177  0.18906944496234246  1.0000
  C   C30       1.0  0.7318550371638198  0.34655541126986766  0.07335046519573152  1.0000
  C   C31       1.0  0.7663184785813604  0.3716523033073871  0.95376473830476  1.0000
  C   C32       1.0  0.8343795810722565  0.4209514770187687  0.9489537497913171  1.0000
  C   C33       1.0  0.8680525698847161  0.4452109604520656  0.06571537151151975  1.0000
  C   C34       1.0  0.6598508033655299  0.29439795398426005  0.07738704549319708  1.0000
  C   C35       1.0  0.6403346811016372  0.19594501037737522  0.17268392776518707  1.0000
  C   C36       1.0  0.5725610586214341  0.14690993512971584  0.17634945375278566  1.0000
  C   C37       1.0  0.5232314936504878  0.19543516632575653  0.08504577861732689  1.0000
  C   C38       1.0  0.5422890427643278  0.29349795295207026  0.9899082537362266  1.0000
  C   C39       1.0  0.6100417779469463  0.34263428910695914  0.985976449563573  1.0000
  N   N3        1.0  0.453914816975058  0.1452240507514888  0.08893148281202423  1.0000
  H   H21       1.0  0.8603729841458104  0.43945482968178856  0.5126327107801143  1.0000
  H   H22       1.0  0.7396855786782441  0.3539180305023615  0.28135480233446564  1.0000
  H   H23       1.0  0.7402928554812062  0.3509769522535433  0.8644339367629885  1.0000
  H   H24       1.0  0.9205583865549569  0.48324383404299964  0.06277200447101139  1.0000
  H   H25       1.0  0.8603035046211668  0.43979177649200407  0.6196629395804112  1.0000
  H   H26       1.0  0.6777283838273471  0.1556771979902789  0.2433329796197055  1.0000
  H   H27       1.0  0.5585536723966518  0.07086400238431656  0.250166366955237  1.0000
  H   H28       1.0  0.5046054803657581  0.3321004706927502  0.9189891173373327  1.0000
  H   H29       1.0  0.6232365096543314  0.4195467086286646  0.9124915707169814  1.0000
  H   H30       1.0  0.41677992995339797  0.18078014480184867  0.0212676204129727  1.0000
  H   H31       1.0  0.4392187518466397  0.072123361256482  0.1595013168507251  1.0000
  Zn  Zn1       1.0  0.7582463729526336  0.42083845662053965  0.5676035894916522  1.0000
  Zn  Zn2       1.0  0.9105534926873612  0.4208347672698633  0.5675992013665929  1.0000
  C   C40       1.0  0.834387877743303  0.4157345233218259  0.8047862663324523  1.0000
  C   C41       1.0  0.8344136507962148  0.4259403391699095  0.33041665196967873  1.0000
  C   C42       1.0  0.8343592450065502  0.6580251442229781  0.5624312342195334  1.0000
  C   C43       1.0  0.8344422318250169  0.1836481580036908  0.5727717532901766  1.0000
  O   O1        1.0  0.892208954294851  0.42768445990354914  0.3787987659290528  1.0000
  O   O2        1.0  0.892190154168021  0.413986622631335  0.7564004480396279  1.0000
  O   O3        1.0  0.8921662536187934  0.6096393636165054  0.5606970449543598  1.0000
  O   O4        1.0  0.8922328028764221  0.23203172818052775  0.5745020716456211  1.0000
  O   O5        1.0  0.7765670107886281  0.6096414957125456  0.5607007192072913  1.0000
  O   O6        1.0  0.7765909110708614  0.413990314995112  0.7564040530796474  1.0000
  O   O7        1.0  0.7766097113485911  0.42768810654294137  0.3788008096364011  1.0000
  O   O8        1.0  0.7766335599228736  0.23203536556044188  0.5745042127163358  1.0000
