data_image0
_chemical_formula_structural       NC11NC3H8C7ONCOCH8C7ONC2H10Zn2C4O8
_chemical_formula_sum              "N4 C36 H26 O11 Zn2"
_cell_length_a       17.807433833752565
_cell_length_b       10.298653850160019
_cell_length_c       10.300139412416755
_cell_angle_alpha    85.55625601834906
_cell_angle_beta     88.51123715616794
_cell_angle_gamma    90.70879808997451

_space_group_name_H-M_alt    "P 1"
_space_group_IT_number       1

loop_
  _space_group_symop_operation_xyz
  'x, y, z'

loop_
  _atom_site_type_symbol
  _atom_site_label
  _atom_site_symmetry_multiplicity
  _atom_site_fract_x
  _atom_site_fract_y
  _atom_site_fract_z
  _atom_site_occupancy
  N   N1        1.0  0.7079563297062887  0.4391806370329843  0.5351556173382431  1.0000
  C   C1        1.0  0.6571195085726292  0.4044243477674707  0.6017050586829247  1.0000
  C   C2        1.0  0.5938733792951962  0.3611903900418591  0.6844840705704842  1.0000
  C   C3        1.0  0.605568632969719  0.29758570837577736  0.8071788439783696  1.0000
  C   C4        1.0  0.5442306090639346  0.2560325786548551  0.8876745268861914  1.0000
  C   C5        1.0  0.47104282191267466  0.27777057909569436  0.8461161145451297  1.0000
  C   C6        1.0  0.4583708743501208  0.3415300098345718  0.7229612057909167  1.0000
  C   C7        1.0  0.380615563886849  0.3645993550790764  0.6786226433215152  1.0000
  C   C8        1.0  0.3618455162708312  0.3477779923739972  0.5490402269950846  1.0000
  C   C9        1.0  0.2886277832917955  0.36947727952695164  0.5074377318128626  1.0000
  C   C10       1.0  0.23323721174407408  0.4083168124309771  0.5945975027685972  1.0000
  C   C11       1.0  0.1578830998459916  0.43067516490208035  0.5516339607541557  1.0000
  N   N2        1.0  0.0973037665001703  0.4486496192727308  0.5170943998417455  1.0000
  C   C12       1.0  0.2513158183929747  0.425348982642387  0.723648866667479  1.0000
  C   C13       1.0  0.3244807466326949  0.40361465986116923  0.7655067732616803  1.0000
  C   C14       1.0  0.5205662068201725  0.38307856765274956  0.6424819368136582  1.0000
  H   H1        1.0  0.6620257225939993  0.2801564252206321  0.8405379079615755  1.0000
  H   H2        1.0  0.5534039990106602  0.20653826297059918  0.9823922775725519  1.0000
  H   H3        1.0  0.4243866687572018  0.2431862886252998  0.9095424083953176  1.0000
  H   H4        1.0  0.40352560297015067  0.3161613772360117  0.4803153201152699  1.0000
  H   H5        1.0  0.2751965417764444  0.355635766344786  0.4074013495166407  1.0000
  H   H6        1.0  0.20891872485259314  0.4557426835727448  0.7918586247631783  1.0000
  H   H7        1.0  0.33738395096577306  0.419001775664568  0.8653609034756777  1.0000
  H   H8        1.0  0.5120915891367204  0.43393524713241427  0.5479989346275164  1.0000
  C   C15       1.0  0.9025423094427084  0.0625151626480478  0.5260129109994491  1.0000
  C   C16       1.0  0.8876319876566013  0.0714250045336271  0.392318489009855  1.0000
  C   C17       1.0  0.8796244894704296  0.9587019477455766  0.3249679441828488  1.0000
  C   C18       1.0  0.8878488465569768  0.836138287370493  0.392657858060957  1.0000
  C   C19       1.0  0.9027249678763856  0.8253052397565342  0.5262479773075475  1.0000
  C   C20       1.0  0.9098229958057085  0.9390764813243277  0.5922008641967101  1.0000
  C   C21       1.0  0.8641630319923675  0.9678983378815382  0.18372272740640483  1.0000
  O   O1        1.0  0.8827184354266427  0.8753494071944375  0.11672041302816516  1.0000
  N   N3        1.0  0.8268243931227676  0.07911819270443043  0.12339516985234433  1.0000
  C   C22       1.0  0.8234893645441841  0.1069936197131476  0.9849035363257195  1.0000
  O   O2        1.0  0.8603371727361637  0.040818374013573015  0.9080382890114542  1.0000
  C   C23       1.0  0.7784075876445562  0.21910253093967058  0.9309455553760333  1.0000
  H   H9        1.0  0.9318597527123119  0.2530153592513438  0.7779486703097951  1.0000
  H   H10       1.0  0.8836608734455684  0.1664655469075449  0.34044248240267777  1.0000
  H   H11       1.0  0.8819589751479009  0.7489096652270663  0.34118051846934394  1.0000
  H   H12       1.0  0.9212935903164077  0.9314534027456547  0.6952402810531768  1.0000
  H   H13       1.0  0.9090713666016789  0.4936819700980489  0.5774606473422415  1.0000
  H   H14       1.0  0.7984686756974314  0.14138764221627298  0.1826120956887496  1.0000
  H   H15       1.0  0.8081140880251969  0.3117444912747347  0.9465430207170137  1.0000
  H   H16       1.0  0.7704068701864213  0.2132222205593941  0.8249574672128156  1.0000
  C   C24       1.0  0.9026858749221807  0.4440629809445263  0.1447688789403019  1.0000
  C   C25       1.0  0.829453376040922  0.3913977745324191  0.15129220163031132  1.0000
  C   C26       1.0  0.7921279436480206  0.3664360555634414  0.03741561322044795  1.0000
  C   C27       1.0  0.8292762054777354  0.39112689933739087  0.9161190997151661  1.0000
  C   C28       1.0  0.9025814115810648  0.4437574631947081  0.9074920173679734  1.0000
  C   C29       1.0  0.9387569381280129  0.4703331395299535  0.022328867307203744  1.0000
  C   C30       1.0  0.7152856749704899  0.3097738133831589  0.04475167567187511  1.0000
  O   O3        1.0  0.6999793888129218  0.21926595236482793  0.9735179808552881  1.0000
  N   N4        1.0  0.6577330665305416  0.355937085411707  0.13011470849776674  1.0000
  C   C31       1.0  0.594907629323409  0.2686712392114867  0.17357597067650699  1.0000
  C   C32       1.0  0.6572417488779402  0.49273431823743225  0.16065492635222012  1.0000
  H   H17       1.0  0.9309502068529693  0.46316854883519243  0.4697743017747607  1.0000
  H   H18       1.0  0.8017573516116316  0.367535885371872  0.24510477087564264  1.0000
  H   H19       1.0  0.8005639065934681  0.3703967816192852  0.8284076712526394  1.0000
  H   H20       1.0  0.9952393923037255  0.5109768344904855  0.016529364798714367  1.0000
  H   H21       1.0  0.5566535320519103  0.3142506433242671  0.24318593421138268  1.0000
  H   H22       1.0  0.5621817999430769  0.24357737196644647  0.0884496908753676  1.0000
  H   H23       1.0  0.6168101246870835  0.17803893381381886  0.2235518702086399  1.0000
  H   H24       1.0  0.6014418938589454  0.520207865869047  0.1996989147969661  1.0000
  H   H25       1.0  0.6995232086439263  0.5100096449305584  0.23471189760960903  1.0000
  H   H26       1.0  0.669957202869448  0.5571462164930314  0.07103783581197631  1.0000
  Zn  Zn1       1.0  0.8203135875389463  0.4419097028455754  0.5299510234161504  1.0000
  Zn  Zn2       1.0  0.9849464899137755  0.4459099287609567  0.5223095763005179  1.0000
  C   C33       1.0  0.9025982286043384  0.4386410601547195  0.7633194687638358  1.0000
  C   C34       1.0  0.9026636470095014  0.4491802538364338  0.2889411754774134  1.0000
  C   C35       1.0  0.9026872781805262  0.6811236802252785  0.5210286320676902  1.0000
  C   C36       1.0  0.9025745408724781  0.20669607194320094  0.531232083537523  1.0000
  O   O4        1.0  0.9651335142218315  0.45241005604946577  0.33442682412286706  1.0000
  O   O5        1.0  0.9650809247650418  0.43844635719981345  0.7120337644279393  1.0000
  O   O6        1.0  0.9651519910147534  0.6342541185129014  0.5163822390565206  1.0000
  O   O7        1.0  0.9650623918096256  0.25660230270135775  0.530078254731869  1.0000
  O   O8        1.0  0.840197629461968  0.63121732754151  0.52218234758562  1.0000
  O   O9        1.0  0.8401265635919635  0.4354111266874321  0.7178338041938952  1.0000
  O   O10       1.0  0.8401791533017611  0.44937478090409155  0.34022530250201344  1.0000
  O   O11       1.0  0.840108030870921  0.2535670182273393  0.5358768304742529  1.0000
