data_image0
_chemical_formula_structural       NC8NH4C10H6C6NH7Zn2C4O8
_chemical_formula_sum              "N3 C28 H17 Zn2 O8"
_cell_length_a       13.859017124695912
_cell_length_b       9.275150299802176
_cell_length_c       9.274774538082514
_cell_angle_alpha    84.74231674010296
_cell_angle_beta     90.34965622944028
_cell_angle_gamma    89.4839206584006

_space_group_name_H-M_alt    "P 1"
_space_group_IT_number       1

loop_
  _space_group_symop_operation_xyz
  'x, y, z'

loop_
  _atom_site_type_symbol
  _atom_site_label
  _atom_site_symmetry_multiplicity
  _atom_site_fract_x
  _atom_site_fract_y
  _atom_site_fract_z
  _atom_site_occupancy
  N   N1        1.0  0.8924482051895953  0.5930075791274155  0.3990046931789228  1.0000
  C   C1        1.0  0.8199994661234351  0.5706257041738233  0.34289580527987207  1.0000
  C   C2        1.0  0.7298775402863159  0.5427859357374154  0.2731035575738725  1.0000
  C   C3        1.0  0.6423766123910389  0.5699269088436285  0.34114221418626534  1.0000
  C   C4        1.0  0.5546472106050299  0.5427871672802491  0.2731029705331278  1.0000
  C   C5        1.0  0.5546011044725981  0.4884991310067355  0.13700417957121022  1.0000
  C   C6        1.0  0.6419199129244537  0.46146246933553653  0.0692274228756915  1.0000
  C   C7        1.0  0.7294664824534228  0.48849676999388647  0.13700537285033842  1.0000
  C   C8        1.0  0.464759619732399  0.570626635574655  0.3428953013308087  1.0000
  N   N2        1.0  0.3924993279298416  0.5930079037967213  0.3990044750467492  1.0000
  H   H1        1.0  0.642553497616973  0.6119479878240195  0.4464859342800049  1.0000
  H   H2        1.0  0.48721573237382526  0.4671382291130936  0.0834502972406179  1.0000
  H   H3        1.0  0.6417434474039149  0.419527241451485  0.9640970373421308  1.0000
  H   H4        1.0  0.796671984958538  0.46713375751462044  0.08345250302322957  1.0000
  C   C9        1.0  0.14503427511353273  0.16928116870823967  0.401420890337975  1.0000
  C   C10       1.0  0.19532474873097017  0.2522848187971214  0.2922256879646168  1.0000
  C   C11       1.0  0.23731729702569604  0.18713519739609508  0.17748133219710688  1.0000
  C   C12       1.0  0.22944418426083346  0.03802891451449497  0.1704542193034937  1.0000
  C   C13       1.0  0.181257572026305  0.9535870779398716  0.2790007459439603  1.0000
  C   C14       1.0  0.1399225775740789  0.016723101666881846  0.39660084746999025  1.0000
  C   C15       1.0  0.28760915897341177  0.27390274092301503  0.06578949311784199  1.0000
  C   C16       1.0  0.32971617775874784  0.3465726031438808  0.9722801441088905  1.0000
  C   C17       1.0  0.3790215417105443  0.4316739179879383  0.8627847745633619  1.0000
  C   C18       1.0  0.4211204412851859  0.5043381418503244  0.7692933506393598  1.0000
  H   H5        1.0  0.10022892908590461  0.4296076539528868  0.6306174108408267  1.0000
  H   H6        1.0  0.19996999572997298  0.36871375611978907  0.2944554123561143  1.0000
  H   H7        1.0  0.2614214706196618  0.9866575068473658  0.08166619665039619  1.0000
  H   H8        1.0  0.1782809272480086  0.8376413171736156  0.27276938863143796  1.0000
  H   H9        1.0  0.0786438331119712  0.8832638751803041  0.7395282945156185  1.0000
  H   H10       1.0  0.45808678725052565  0.5681434971176225  0.6872001585345426  1.0000
  C   C19       1.0  0.14072454294182313  0.5966926618134107  0.9751735617009785  1.0000
  C   C20       1.0  0.20858121057307424  0.6818428942584873  0.04142572762987152  1.0000
  C   C21       1.0  0.2808383637374703  0.755107097181172  0.9602440704203619  1.0000
  C   C22       1.0  0.2858256426704762  0.7435533474380343  0.8113323681849776  1.0000
  C   C23       1.0  0.21825936773488808  0.6615817509119898  0.7433595602329821  1.0000
  C   C24       1.0  0.14423233129308177  0.5893115972202858  0.8228481683919764  1.0000
  N   N3        1.0  0.34980394330014897  0.8400565870441432  0.029502622808485587  1.0000
  H   H11       1.0  0.9981984158493946  0.31462459536925125  0.10269827333884263  1.0000
  H   H12       1.0  0.20680308186797444  0.6886863278570385  0.15740693386627602  1.0000
  H   H13       1.0  0.341618516940706  0.7993025198933406  0.7474844856344736  1.0000
  H   H14       1.0  0.22258621251350963  0.6575680675539075  0.6272093377807363  1.0000
  H   H15       1.0  0.04524611809109613  0.4037215378435439  0.5578220215941398  1.0000
  H   H16       1.0  0.3469474256661844  0.8491051637740992  0.14082108068809762  1.0000
  H   H17       1.0  0.4042109745088574  0.8946710627049828  0.9699498793749051  1.0000
  Zn  Zn1       1.0  0.03675221826896324  0.5930037477680687  0.399012991389194  1.0000
  Zn  Zn2       1.0  0.24819542720010834  0.5929998615113432  0.3990080816092027  1.0000
  C   C25       1.0  0.14360181008489173  0.584958502549507  0.6626522135553334  1.0000
  C   C26       1.0  0.14134813394191936  0.601046926070588  0.13536899069504482  1.0000
  C   C27       1.0  0.14086005461739995  0.8565886395015732  0.3917604667104231  1.0000
  C   C28       1.0  0.14408982803392154  0.32941505484867006  0.4062608243508299  1.0000
  O   O1        1.0  0.2217990505927514  0.6025004870978689  0.189130212637425  1.0000
  O   O2        1.0  0.2236314013966061  0.5835009070233844  0.6088868559181938  1.0000
  O   O3        1.0  0.22141632369762254  0.8028456647963416  0.39013984522844125  1.0000
  O   O4        1.0  0.22401405563040735  0.3831557405905964  0.4078771150520506  1.0000
  O   O5        1.0  0.06093351768343336  0.802847868691779  0.39014395794042056  1.0000
  O   O6        1.0  0.06314858460267625  0.5835048451916371  0.6088908818133734  1.0000
  O   O7        1.0  0.0613162269854819  0.6025043900933973  0.18913250354382158  1.0000
  O   O8        1.0  0.06353123252923432  0.38315963232340366  0.4078795142276499  1.0000
