data_image0
_chemical_formula_structural       NC12NC2H8C10H6C9NC2H9Zn2C4O8
_chemical_formula_sum              "N3 C39 H23 Zn2 O8"
_cell_length_a       17.80743265337812
_cell_length_b       10.30283237001006
_cell_length_c       9.273598843048156
_cell_angle_alpha    85.11607407286215
_cell_angle_beta     91.13569736745053
_cell_angle_gamma    89.43531271068052

_space_group_name_H-M_alt    "P 1"
_space_group_IT_number       1

loop_
  _space_group_symop_operation_xyz
  'x, y, z'

loop_
  _atom_site_type_symbol
  _atom_site_label
  _atom_site_symmetry_multiplicity
  _atom_site_fract_x
  _atom_site_fract_y
  _atom_site_fract_z
  _atom_site_occupancy
  N   N1        1.0  0.7129663250143977  0.41699174115096155  0.44593026205545616  1.0000
  C   C1        1.0  0.662418839117284  0.4470688867809849  0.36959760547814074  1.0000
  C   C2        1.0  0.599532717595588  0.4844826446095907  0.27464938971864683  1.0000
  C   C3        1.0  0.611761328288126  0.5394588400198075  0.13395942673660843  1.0000
  C   C4        1.0  0.5507730629537012  0.5753510736484932  0.04167342637034598  1.0000
  C   C5        1.0  0.4774044997541942  0.5565355616810466  0.08934415687482766  1.0000
  C   C6        1.0  0.4641972600220399  0.5014370059518363  0.23055428538006684  1.0000
  C   C7        1.0  0.5260429069043255  0.46554815197906957  0.32282193914820434  1.0000
  C   C8        1.0  0.3862491520710057  0.4814857502594662  0.2814031529664318  1.0000
  C   C9        1.0  0.3669598513329242  0.5076887251540241  0.4225671400046427  1.0000
  C   C10       1.0  0.2935611813532561  0.48891446250485804  0.4702829424759827  1.0000
  C   C11       1.0  0.23850552373246006  0.4436765992115812  0.37776584557614656  1.0000
  C   C12       1.0  0.1629647004166923  0.42433892725589395  0.427038249869772  1.0000
  N   N2        1.0  0.1022352276079827  0.40879274007749244  0.4666498733087603  1.0000
  C   C13       1.0  0.2571011809774206  0.4173005960450605  0.23720516542044767  1.0000
  C   C14       1.0  0.3304480093886819  0.4360916035348819  0.18920503873882488  1.0000
  H   H1        1.0  0.6683633599668308  0.5545423838986465  0.09569574266974823  1.0000
  H   H2        1.0  0.5603583012548198  0.6181857349084288  0.9330290045252401  1.0000
  H   H3        1.0  0.4310248551132559  0.5866654402399831  0.016464845059101844  1.0000
  H   H4        1.0  0.5171565524668199  0.42132955914651876  0.431328047614163  1.0000
  H   H5        1.0  0.4083763326101205  0.5443534260608454  0.4954286289171288  1.0000
  H   H6        1.0  0.2797295059717639  0.5100011870852981  0.5791844907253327  1.0000
  H   H7        1.0  0.2149661778635153  0.38189962195224875  0.16480255857639925  1.0000
  H   H8        1.0  0.3437500977633876  0.4134674714197168  0.08064049490325553  1.0000
  C   C15       1.0  0.907604319826387  0.03163956750471807  0.45629646239887256  1.0000
  C   C16       1.0  0.9442369633241019  0.04011952806280683  0.3231264803316354  1.0000
  C   C17       1.0  0.9624623936726167  0.9272349895018646  0.2568723431904385  1.0000
  C   C18       1.0  0.9442370641517741  0.8048169317621299  0.3231267879038411  1.0000
  C   C19       1.0  0.9076043732546258  0.7941347200121505  0.4562964947507134  1.0000
  C   C20       1.0  0.8894789004630226  0.9081464727660307  0.5221874658220451  1.0000
  C   C21       1.0  1.433354134960878e-05  0.9370565953975237  0.12036033633147358  1.0000
  C   C22       1.0  0.03145337852276909  0.9452794695697649  0.006069778679665743  1.0000
  C   C23       1.0  0.0682681847432065  0.9549082986047118  0.8722367361804215  1.0000
  C   C24       1.0  0.09970239173919881  0.9631299283792463  0.7579635647470853  1.0000
  H   H9        1.0  0.8937322420675159  0.3557506938277648  0.5067255881437638  1.0000
  H   H10       1.0  0.9586877898468742  0.13431737690197432  0.27059356731936623  1.0000
  H   H11       1.0  0.9586880254699865  0.7181782655443559  0.2705936561780724  1.0000
  H   H12       1.0  0.8612281213165537  0.9007577480487683  0.6248864671580261  1.0000
  H   H13       1.0  0.8937320305831562  0.4627670883181946  0.5067253664856102  1.0000
  H   H14       1.0  0.12730421858058993  0.9703493263621437  0.6576221997846017  1.0000
  C   C25       1.0  0.9091189519551224  0.4158252566762845  0.0325382973529622  1.0000
  C   C26       1.0  0.8589150811275246  0.49886472849496877  0.09626784491072926  1.0000
  C   C27       1.0  0.8050066286367406  0.571773299397492  0.012632466475974496  1.0000
  C   C28       1.0  0.7998309361845868  0.5637160042749891  0.8626365772381326  1.0000
  C   C29       1.0  0.8506020806565506  0.48261255950966486  0.7975278267243389  1.0000
  C   C30       1.0  0.9060897171392653  0.40994901832041614  0.8800546370494285  1.0000
  C   C31       1.0  0.7420131589285194  0.6408490053594287  0.7739605233558597  1.0000
  C   C32       1.0  0.7596850698241593  0.7032438808786117  0.6383406930219526  1.0000
  C   C33       1.0  0.7044152160194384  0.775325794001738  0.5568829294625073  1.0000
  N   N3        1.0  0.6338686733009676  0.7850609333196601  0.6084510584776117  1.0000
  C   C34       1.0  0.6149860575865542  0.725946965261925  0.739097288071263  1.0000
  C   C35       1.0  0.6685260718271555  0.6529949048024637  0.8241689510725494  1.0000
  H   H15       1.0  0.021198236372804262  0.3218579582892409  0.32682070086661597  1.0000
  H   H16       1.0  0.8602467727567991  0.5054389184784489  0.21226085522643268  1.0000
  H   H17       1.0  0.7674135388983265  0.6350477252218105  0.06553279823292524  1.0000
  H   H18       1.0  0.8473868622559477  0.47682140914394283  0.6814452276931924  1.0000
  H   H19       1.0  0.07488194452908536  0.27746036754381825  0.7959470870592997  1.0000
  H   H20       1.0  0.8158738803326133  0.697878702822391  0.5965611184544009  1.0000
  H   H21       1.0  0.7177176631876697  0.8238939733475286  0.45262408924642417  1.0000
  H   H22       1.0  0.5582683199261462  0.7353100754640263  0.7769243428911117  1.0000
  H   H23       1.0  0.6523696479301464  0.6052123577826365  0.9272430397889204  1.0000
  Zn  Zn1       1.0  0.8253008952359311  0.4146221626467437  0.451917813401856  1.0000
  Zn  Zn2       1.0  0.9899006128215192  0.4111516467442391  0.4606740924336738  1.0000
  C   C36       1.0  0.906660653279318  0.4058876905340514  0.7198558259274375  1.0000
  C   C37       1.0  0.9085426516958225  0.4198877180966365  0.19273631716082917  1.0000
  C   C38       1.0  0.9076210537123165  0.6500468490831306  0.4505458852212545  1.0000
  C   C39       1.0  0.9075821948213463  0.17572700037183786  0.4620463318135739  1.0000
  O   O1        1.0  0.9708139750688966  0.4199284105492646  0.24982319829397315  1.0000
  O   O2        1.0  0.9693167084601462  0.40321198027026  0.6694143425737744  1.0000
  O   O3        1.0  0.970091396538183  0.6003735959634899  0.4519446152452995  1.0000
  O   O4        1.0  0.9700392312108495  0.22276680607786178  0.4672928144366342  1.0000
  O   O5        1.0  0.8451622206768225  0.603007004498904  0.44529908840321736  1.0000
  O   O6        1.0  0.8443875328704855  0.40584694916717534  0.6627687387894523  1.0000
  O   O7        1.0  0.8458848057302777  0.4225633462322116  0.24317585956148813  1.0000
  O   O8        1.0  0.8451100614824626  0.2254017317247643  0.4606455838942851  1.0000
