data_image0
_chemical_formula_structural       NC5NC4H6C10H6C6NCH8Zn2C4O8
_chemical_formula_sum              "N3 C30 H20 Zn2 O8"
_cell_length_a       13.854160002989762
_cell_length_b       9.275150299802176
_cell_length_c       9.274690524155615
_cell_angle_alpha    85.73181374548483
_cell_angle_beta     89.68736373973688
_cell_angle_gamma    89.48388968248379

_space_group_name_H-M_alt    "P 1"
_space_group_IT_number       1

loop_
  _space_group_symop_operation_xyz
  'x, y, z'

loop_
  _atom_site_type_symbol
  _atom_site_label
  _atom_site_symmetry_multiplicity
  _atom_site_fract_x
  _atom_site_fract_y
  _atom_site_fract_z
  _atom_site_occupancy
  N   N1        1.0  0.9053101515047688  0.5651129222359588  0.40131306749991885  1.0000
  C   C1        1.0  0.8330446343006392  0.5898197966019056  0.342137530096273  1.0000
  C   C2        1.0  0.7431453169315764  0.6205558126883425  0.268520897349615  1.0000
  C   C3        1.0  0.6554856559776685  0.5916864845621554  0.34039452582396246  1.0000
  C   C4        1.0  0.5680029045600195  0.620555826821351  0.26852087410120995  1.0000
  C   C5        1.0  0.4779364934825495  0.5898196500229655  0.3421376225317112  1.0000
  N   N2        1.0  0.40553658128902237  0.5651128587128993  0.40131306777309705  1.0000
  C   C6        1.0  0.5682087323363529  0.6789012948481148  0.12478914803361896  1.0000
  C   C7        1.0  0.6558231167084102  0.7099207041909557  0.05279992009671819  1.0000
  C   C8        1.0  0.6560374095531752  0.7684071819660805  0.8975804985955489  1.0000
  C   C9        1.0  0.7432858217144374  0.6789012927347222  0.12478905778387928  1.0000
  H   H1        1.0  0.6553523224898674  0.5464168886089223  0.45164087292677674  1.0000
  H   H2        1.0  0.5004109396699318  0.7002110108404372  0.06902904283996225  1.0000
  H   H3        1.0  0.720570001119183  0.8363875405836967  0.8734131443857214  1.0000
  H   H4        1.0  0.5908615232081095  0.8363875430290668  0.8734132094447977  1.0000
  H   H5        1.0  0.6568467865284694  0.6772224552844892  0.8265559323546117  1.0000
  H   H6        1.0  0.811233898392125  0.7002111226237409  0.06902895679605517  1.0000
  C   C10       1.0  0.15796583743404535  0.14142839602252005  0.40372589969348405  1.0000
  C   C11       1.0  0.20912984584441774  0.22252951184402736  0.29468813405763555  1.0000
  C   C12       1.0  0.2520365155953357  0.15538068108748296  0.1801092106733631  1.0000
  C   C13       1.0  0.2442157231004174  0.0061519724896077505  0.17309222421552706  1.0000
  C   C14       1.0  0.19516139817801004  0.9236013666280197  0.281482250218259  1.0000
  C   C15       1.0  0.15289012864886478  0.9887863543932153  0.3989128028934168  1.0000
  C   C16       1.0  0.3032214821773238  0.24020219181311342  0.06857840742443422  1.0000
  C   C17       1.0  0.3460762164776723  0.31124281896980305  0.9752038789708921  1.0000
  C   C18       1.0  0.39625712264646085  0.3944363706082579  0.8658663784158769  1.0000
  C   C19       1.0  0.4391035943876205  0.4654716717194183  0.7725097492031088  1.0000
  H   H7        1.0  0.11134827490870444  0.405748176162323  0.6325919949749146  1.0000
  H   H8        1.0  0.2137592442141444  0.33899729341129126  0.29691464630458797  1.0000
  H   H9        1.0  0.27690016645306414  0.9532335972661639  0.0844322112269249  1.0000
  H   H10       1.0  0.19223255297548003  0.8075470403515099  0.27525987448987554  1.0000
  H   H11       1.0  0.08890193661140988  0.8613019538259309  0.7413458652084721  1.0000
  H   H12       1.0  0.4767263704729575  0.5278466982706647  0.6905349179881042  1.0000
  C   C20       1.0  0.1569956431216668  0.561413448479938  0.9780930370652384  1.0000
  C   C21       1.0  0.2350422768462016  0.6238250736818103  0.046475909166166396  1.0000
  C   C22       1.0  0.30805977711973587  0.697163589931056  0.9655615452920006  1.0000
  C   C23       1.0  0.30227731594794105  0.7078209340663674  0.8146045488687994  1.0000
  C   C24       1.0  0.22629556741995413  0.644549729808699  0.7450158742694449  1.0000
  C   C25       1.0  0.1538603169792876  0.5688013200037052  0.8245456193040279  1.0000
  N   N3        1.0  0.3879932382756639  0.7626384829554537  0.033911436361645064  1.0000
  C   C26       1.0  0.4011231359207018  0.7575595885563993  0.19022183396891595  1.0000
  H   H13       1.0  0.047863741147416095  0.38749958905219556  0.2720796580196283  1.0000
  H   H14       1.0  0.3575364023574985  0.7642992185990325  0.7502251902696511  1.0000
  H   H15       1.0  0.22551928732523488  0.6519937899235051  0.6279008760440519  1.0000
  H   H16       1.0  0.001731571388320146  0.501114828028467  0.549491892946874  1.0000
  H   H17       1.0  0.4401858651850556  0.8166076669354503  0.9689707416952476  1.0000
  H   H18       1.0  0.46833070176565433  0.8147272861894006  0.21557543492320932  1.0000
  H   H19       1.0  0.40720839754228716  0.6434989693881268  0.23509436489733604  1.0000
  H   H20       1.0  0.33923759201538045  0.8116484538228792  0.2411166128830311  1.0000
  Zn  Zn1       1.0  0.04966469148506936  0.5651091138578956  0.4013214212572094  1.0000
  Zn  Zn2       1.0  0.26118206936228505  0.5651049638870098  0.40131661747418823  1.0000
  C   C27       1.0  0.15448526415442695  0.5616571258493062  0.6645806373697691  1.0000
  C   C28       1.0  0.15636379502773387  0.5685587735211297  0.13805753242547625  1.0000
  C   C29       1.0  0.15386587465760207  0.8285675581985632  0.39407940035036493  1.0000
  C   C30       1.0  0.1569831224471023  0.30164660841456503  0.40855885613058196  1.0000
  O   O1        1.0  0.23642152131119634  0.5709489405898169  0.19174129110443894  1.0000
  O   O2        1.0  0.23496434155722046  0.5592627169979087  0.6108928240353131  1.0000
  O   O3        1.0  0.23446308907992058  0.7747962797640828  0.3924611528043336  1.0000
  O   O4        1.0  0.23692270195038612  0.35541538720292687  0.4101728542163443  1.0000
  O   O5        1.0  0.0739239867164867  0.7747986905448991  0.39246518450910317  1.0000
  O   O6        1.0  0.07442522909076163  0.5592668605389535  0.610896769048431  1.0000
  O   O7        1.0  0.07588241562834862  0.5709530187296892  0.1917435036298889  1.0000
  O   O8        1.0  0.07638359592516687  0.35541945596643665  0.4101751748549185  1.0000
