data_image0
_chemical_formula_structural       NC6NC2H4C9H9C6ClH3Zn2C4O8
_chemical_formula_sum              "N2 C27 H16 Cl1 Zn2 O8"
_cell_length_a       14.927258858638513
_cell_length_b       10.297183801781406
_cell_length_c       10.302974078461048
_cell_angle_alpha    85.53397833117516
_cell_angle_beta     89.99986750987136
_cell_angle_gamma    89.99762792032334

_space_group_name_H-M_alt    "P 1"
_space_group_IT_number       1

loop_
  _space_group_symop_operation_xyz
  'x, y, z'

loop_
  _atom_site_type_symbol
  _atom_site_label
  _atom_site_symmetry_multiplicity
  _atom_site_fract_x
  _atom_site_fract_y
  _atom_site_fract_z
  _atom_site_occupancy
  N   N1        1.0  0.8435302161399982  0.421683713415157  0.5673163254312408  1.0000
  C   C1        1.0  0.766003724973048  0.4216836877335432  0.5673163349790954  1.0000
  C   C2        1.0  0.6695712174258728  0.42168379141441226  0.5673162900280544  1.0000
  C   C3        1.0  0.6225196331636548  0.40034305542206156  0.45323323539740884  1.0000
  C   C4        1.0  0.5288083218196469  0.4003430785149445  0.45323311519506077  1.0000
  C   C5        1.0  0.48175515343871395  0.4216836314767329  0.5673163068783689  1.0000
  C   C6        1.0  0.3853225789000024  0.421683735160272  0.5673162619219914  1.0000
  N   N2        1.0  0.3077960877330526  0.42168370947865835  0.5673162714698461  1.0000
  C   C7        1.0  0.5288066707093958  0.4430243674717541  0.681399361503678  1.0000
  C   C8        1.0  0.6225179820534037  0.44302434437887084  0.681399481706026  1.0000
  H   H1        1.0  0.6582164449110217  0.38373875961084264  0.36447007134371184  1.0000
  H   H2        1.0  0.4931127893948499  0.38373893755338595  0.36447006681799227  1.0000
  H   H3        1.0  0.49310992594997594  0.4596286539888925  0.7701626229026146  1.0000
  H   H4        1.0  0.6582135144733294  0.45962857301457416  0.7701626291347323  1.0000
  C   C9        1.0  0.07567058257081466  0.0402081422429128  0.567500262147927  1.0000
  C   C10       1.0  0.07305903705258632  0.0500681310004707  0.4308847812502383  1.0000
  C   C11       1.0  0.07172085870176437  0.9385032041852206  0.3608926753269672  1.0000
  C   C12       1.0  0.07304854227967916  0.814897038190549  0.4303552798755208  1.0000
  C   C13       1.0  0.07566432537009038  0.8031492688380216  0.5671435593928249  1.0000
  C   C14       1.0  0.0769574198018548  0.9162809492523613  0.6348231279032288  1.0000
  C   C15       1.0  0.06889603995868489  0.9585996730640667  0.2131333861106337  1.0000
  C   C16       1.0  0.016440498397513277  0.8598827637800657  0.14086300280977704  1.0000
  C   C17       1.0  0.11850011315774572  0.8601909718709976  0.13673877382543842  1.0000
  H   H5        1.0  0.07205102451919326  0.14529699599406354  0.37814366833256907  1.0000
  H   H6        1.0  0.07206634871241492  0.7272973349346986  0.379078777459116  1.0000
  H   H7        1.0  0.07897183300022431  0.9079463180077317  0.7402248402430224  1.0000
  H   H8        1.0  0.08059290295233712  0.5737445905015854  0.8254981029407209  1.0000
  H   H9        1.0  0.06798891600732729  0.059315239363856964  0.16564095303060178  1.0000
  H   H10       1.0  0.9865470052344404  0.7762452539198051  0.19994490689983396  1.0000
  H   H11       1.0  0.9848358036182846  0.9007557396078044  0.04900932980516526  1.0000
  H   H12       1.0  0.1506023553398832  0.7767414815888535  0.19331610801542015  1.0000
  H   H13       1.0  0.14654477175989844  0.9012417144365977  0.0424734726219138  1.0000
  C   C18       1.0  0.07566745409787218  0.4216787216395619  0.18607943090476975  1.0000
  C   C19       1.0  0.06008569068790284  0.2867555256127887  0.1953761777161937  1.0000
  C   C20       1.0  0.05235449061875011  0.21981031065007772  0.08303217872560986  1.0000
  C   C21       1.0  0.060085730753421725  0.28675559897741154  0.960268278710787  1.0000
  C   C22       1.0  0.07566745181337131  0.42167865458394044  0.9485644500095385  1.0000
  C   C23       1.0  0.0833823954685724  0.4884825868008924  0.0621229976247326  1.0000
  Cl  Cl1       1.0  0.03288916934094144  0.05125918572693777  0.09614956683567066  1.0000
  H   H14       1.0  0.05388847169883549  0.23309341982162435  0.2895989407366228  1.0000
  H   H15       1.0  0.05388853429928456  0.2330934012852348  0.874397974671377  1.0000
  H   H16       1.0  0.09539947890430467  0.592539405251929  0.05402474241516986  1.0000
  Zn  Zn1       1.0  0.9775073259951877  0.42168023138257826  0.5673238131161162  1.0000
  Zn  Zn2       1.0  0.17381898884755598  0.4216765509744138  0.5673194385024833  1.0000
  C   C24       1.0  0.07566548391012207  0.4165035669960625  0.8044408472029438  1.0000
  C   C25       1.0  0.07566297463639596  0.4268548543985114  0.3302025310258107  1.0000
  C   C26       1.0  0.07566088444856955  0.6589371526426778  0.5620375492693793  1.0000
  C   C27       1.0  0.07566750712333015  0.18441970801427376  0.5726058989061931  1.0000
  O   O1        1.0  0.15016072430044503  0.4285849478155681  0.3785699025136179  1.0000
  O   O2        1.0  0.15016374401640986  0.4147697002379314  0.756069782220653  1.0000
  O   O3        1.0  0.1501590256074453  0.6105378866574886  0.5603274034866608  1.0000
  O   O4        1.0  0.15016537572146282  0.2328167706900914  0.5743121839023704  1.0000
  O   O5        1.0  0.0011608721297449163  0.6105400116695707  0.5603310677108925  1.0000
  O   O6        1.0  0.0011655905217917702  0.414773385990306  0.7560733764927303  1.0000
  O   O7        1.0  0.0011625708658127272  0.42858858829939606  0.37857193592376626  1.0000
  O   O8        1.0  0.0011672222832412866  0.23282040188250885  0.5743143146524228  1.0000
