data_image0
_chemical_formula_structural       NC8NC6H8C7OCH9C8NH6Zn2C4O8
_chemical_formula_sum              "N3 C34 H23 O9 Zn2"
_cell_length_a       17.457602349358154
_cell_length_b       10.300832083147542
_cell_length_c       9.274266800404106
_cell_angle_alpha    85.96676049995207
_cell_angle_beta     92.41618932719734
_cell_angle_gamma    91.68357009181102

_space_group_name_H-M_alt    "P 1"
_space_group_IT_number       1

loop_
  _space_group_symop_operation_xyz
  'x, y, z'

loop_
  _atom_site_type_symbol
  _atom_site_label
  _atom_site_symmetry_multiplicity
  _atom_site_fract_x
  _atom_site_fract_y
  _atom_site_fract_z
  _atom_site_occupancy
  N   N1        1.0  0.7286988253094093  0.4427525279587643  0.47547151708172136  1.0000
  C   C1        1.0  0.6676725016044214  0.39675485340546723  0.4637104675894231  1.0000
  C   C2        1.0  0.5917531274339783  0.33953952916138097  0.4490903071594445  1.0000
  C   C3        1.0  0.5328758666714736  0.38023966544225773  0.532178011425114  1.0000
  C   C4        1.0  0.45839161756665503  0.325146849267566  0.5182387884557316  1.0000
  C   C5        1.0  0.395902884942957  0.3681219255885964  0.6062318677834826  1.0000
  C   C6        1.0  0.32161314848544  0.3861849496734022  0.5443520107854893  1.0000
  C   C7        1.0  0.262735395575044  0.42670195938866656  0.6275595665721494  1.0000
  C   C8        1.0  0.187017718388165  0.4453547432352543  0.5632212979526636  1.0000
  N   N2        1.0  0.12615362208667122  0.4603452034523888  0.5114935000362901  1.0000
  C   C9        1.0  0.2776528509944252  0.4494027439704542  0.7732111144929761  1.0000
  C   C10       1.0  0.35115606937353167  0.4317314749201653  0.8355208834923025  1.0000
  C   C11       1.0  0.4100200903414892  0.3913978153455278  0.7528211258137851  1.0000
  C   C12       1.0  0.44407994001866347  0.22866617048273996  0.41962221740353134  1.0000
  C   C13       1.0  0.5029436172053927  0.18824758285042797  0.3369782319004728  1.0000
  C   C14       1.0  0.5766405507173008  0.24345674445362311  0.35152761173131686  1.0000
  H   H1        1.0  0.5449076020550384  0.45590910472391255  0.6060795559584002  1.0000
  H   H2        1.0  0.3097408802770068  0.3704776485545782  0.43115589387144904  1.0000
  H   H3        1.0  0.2325180477536017  0.4807084234052513  0.8384808779971255  1.0000
  H   H4        1.0  0.36251626808136045  0.4489935863431605  0.9483022468449013  1.0000
  H   H5        1.0  0.4662932565691109  0.37674115197303126  0.8039845966859949  1.0000
  H   H6        1.0  0.3876470292205664  0.18325784645611434  0.407820867035513  1.0000
  H   H7        1.0  0.4914311735491575  0.11368582528846738  0.2617466526441714  1.0000
  H   H8        1.0  0.6217730811079923  0.21128514947646496  0.286825305076732  1.0000
  C   C15       1.0  0.9274506681034637  0.07021420807088385  0.4936359862604433  1.0000
  C   C16       1.0  0.9067124188419198  0.07772748157874144  0.3453852740420722  1.0000
  C   C17       1.0  0.8953731889926084  0.9643266921377133  0.2710891346808937  1.0000
  C   C18       1.0  0.9066586440210667  0.8424636067589127  0.34499953313475173  1.0000
  C   C19       1.0  0.9274090815625092  0.8328739060870725  0.49334218944652264  1.0000
  C   C20       1.0  0.9375031565632512  0.9472681598513678  0.5668562929885497  1.0000
  C   C21       1.0  0.8753869944527505  0.9736532534566626  0.11160289030498192  1.0000
  O   O1        1.0  0.9438468542727605  0.9820452126874126  0.03540155035793192  1.0000
  C   C22       1.0  0.9258580840890308  0.990880305722352  0.8854657961265966  1.0000
  H   H9        1.0  0.8993094946379873  0.17169763874144883  0.2870873779703842  1.0000
  H   H10       1.0  0.8992181064479662  0.7552829277482346  0.28643676279054  1.0000
  H   H11       1.0  0.9535039252974606  0.9407110034103954  0.6811900196785126  1.0000
  H   H12       1.0  0.967396191235887  0.6075984590761332  0.772816183757091  1.0000
  H   H13       1.0  0.8401780887828227  0.061203996634611624  0.08431352574296636  1.0000
  H   H14       1.0  0.8402102562339894  0.8861137323190376  0.08398590732112643  1.0000
  H   H15       1.0  0.9801491836027959  0.9973958549320755  0.8270706318958041  1.0000
  H   H16       1.0  0.8933170074324386  0.08014598327279822  0.8524558793893786  1.0000
  H   H17       1.0  0.8933318232653191  0.9026622229872933  0.8521000108260511  1.0000
  C   C23       1.0  0.9291938979695197  0.44878288741327466  0.0703393045540579  1.0000
  C   C24       1.0  0.884632180132715  0.3538501565735522  0.14748543885147547  1.0000
  C   C25       1.0  0.8354291602467067  0.2688112898155069  0.0751605798836128  1.0000
  C   C26       1.0  0.8291477414173084  0.27735942724246865  0.9238900651127055  1.0000
  C   C27       1.0  0.874762465071911  0.3692342149356376  0.8455342960494047  1.0000
  C   C28       1.0  0.9256658046011292  0.45430522422878733  0.9166388028715975  1.0000
  C   C29       1.0  0.7769164353254888  0.18434898636079458  0.846108951802981  1.0000
  C   C30       1.0  0.8184523987773892  0.0674686539123408  0.8187034879195196  1.0000
  N   N3        1.0  0.8512394930509344  0.9752233384256463  0.7970719477812955  1.0000
  H   H18       1.0  0.013661045741733217  0.7383203217352428  0.15732128964909808  1.0000
  H   H19       1.0  0.8865905618741728  0.3472114653223748  0.26467951106686427  1.0000
  H   H20       1.0  0.8015883398196384  0.1969146076997539  0.13736427923920203  1.0000
  H   H21       1.0  0.8717756551038077  0.37206494708455695  0.7283714737977451  1.0000
  H   H22       1.0  0.7550386955660982  0.23092902434091656  0.7413390156298112  1.0000
  H   H23       1.0  0.7266189669035683  0.15544139193732495  0.9117221235371615  1.0000
  Zn  Zn1       1.0  0.8433956597010217  0.44782596598227964  0.48587500454929144  1.0000
  Zn  Zn2       1.0  0.011456724844901353  0.45526119554147804  0.5011018140441013  1.0000
  C   C31       1.0  0.9263312780680768  0.4480880952060598  0.756671945395478  1.0000
  C   C32       1.0  0.9285229410204549  0.4550007869062279  0.2303051802739866  1.0000
  C   C33       1.0  0.9274369126038664  0.6886773460867728  0.48765520433074944  1.0000
  C   C34       1.0  0.9274172489020287  0.21440997382651797  0.49932199356801066  1.0000
  O   O2        1.0  0.9920760604126816  0.459903536410768  0.2897696865026278  1.0000
  O   O3        1.0  0.990332620234401  0.44882753055577945  0.7087638208237077  1.0000
  O   O4        1.0  0.9912245680965052  0.6431063650483434  0.49153082065766274  1.0000
  O   O5        1.0  0.9911840556526232  0.2656247079654488  0.5070025734266703  1.0000
  O   O6        1.0  0.8636682715423383  0.6374624510223944  0.47997423996297933  1.0000
  O   O7        1.0  0.862776323911909  0.44318517619291253  0.6972071626959861  1.0000
  O   O8        1.0  0.8645197713659806  0.45426112549345166  0.27821129593709615  1.0000
  O   O9        1.0  0.863627766152914  0.2599822884649734  0.49544429089939834  1.0000
