data_image0
_chemical_formula_structural       NC8NC6H8C7OC6OCH12C7OC6OH11Zn2C4O8
_chemical_formula_sum              "N2 C45 H31 O12 Zn2"
_cell_length_a       17.457602349358154
_cell_length_b       10.299359160628079
_cell_length_c       10.299362532796529
_cell_angle_alpha    85.58430886835329
_cell_angle_beta     92.89066602148195
_cell_angle_gamma    91.71072845926622

_space_group_name_H-M_alt    "P 1"
_space_group_IT_number       1

loop_
  _space_group_symop_operation_xyz
  'x, y, z'

loop_
  _atom_site_type_symbol
  _atom_site_label
  _atom_site_symmetry_multiplicity
  _atom_site_fract_x
  _atom_site_fract_y
  _atom_site_fract_z
  _atom_site_occupancy
  N   N1        1.0  0.7225531431263551  0.4524338932613508  0.6266635363254145  1.0000
  C   C1        1.0  0.6614626703016621  0.40650394193748757  0.6160423656766816  1.0000
  C   C2        1.0  0.5854635419264694  0.34937280009707683  0.6028391720975881  1.0000
  C   C3        1.0  0.5269561874000831  0.38955984321329695  0.6777421748479553  1.0000
  C   C4        1.0  0.4523957397698325  0.3345472225168613  0.6651536716042041  1.0000
  C   C5        1.0  0.3902987146148105  0.37697889781641575  0.7444787774109116  1.0000
  C   C6        1.0  0.3157476625250147  0.39542994689653277  0.6887169444393992  1.0000
  C   C7        1.0  0.2572402785737998  0.4354330938448608  0.763727880346414  1.0000
  C   C8        1.0  0.1812508665391983  0.45448930286194766  0.705750638112882  1.0000
  N   N2        1.0  0.12016829428411202  0.4698041150783674  0.6591370856622323  1.0000
  C   C9        1.0  0.272791921457766  0.4572285033483264  0.8950091995275522  1.0000
  C   C10       1.0  0.3465584225158357  0.43916657654328883  0.9511586792921918  1.0000
  C   C11       1.0  0.4050543160810149  0.39934363594812994  0.8766054896080047  1.0000
  C   C12       1.0  0.4376309070188561  0.23866966002188805  0.5762291546632916  1.0000
  C   C13       1.0  0.4961266722127748  0.19876143327452267  0.5017261911502435  1.0000
  C   C14       1.0  0.5699024671850622  0.25388660923349327  0.5148646620009616  1.0000
  H   H1        1.0  0.5393284963567107  0.4647777282629595  0.7443822249772558  1.0000
  H   H2        1.0  0.30338308935674957  0.38042651266535565  0.586689846007846  1.0000
  H   H3        1.0  0.2279475037738022  0.4881310398655898  0.9538491402134355  1.0000
  H   H4        1.0  0.3584095947729122  0.45572759661952444  0.05281269565271229  1.0000
  H   H5        1.0  0.4615436246716707  0.3843661798661467  0.9227105881115623  1.0000
  H   H6        1.0  0.3811338461401168  0.19332938234645214  0.5655719355818194  1.0000
  H   H7        1.0  0.48426824910041155  0.12465965778798484  0.4338879397456319  1.0000
  H   H8        1.0  0.6147468031881069  0.22211451350202482  0.4565357492203501  1.0000
  C   C15       1.0  0.9212740967066136  0.07973690323088126  0.6428617490046449  1.0000
  C   C16       1.0  0.8578022672129688  0.0822184525303824  0.5532819200849048  1.0000
  C   C17       1.0  0.8263386358389466  0.9665091526344285  0.5070520842700192  1.0000
  C   C18       1.0  0.8579850592764638  0.8469650051559839  0.5535519523378203  1.0000
  C   C19       1.0  0.9214546808220522  0.8424913628693372  0.6429507430611754  1.0000
  C   C20       1.0  0.9528396029412645  0.9594520650384617  0.6868886516966297  1.0000
  C   C21       1.0  0.7587859685825373  0.9712430188336553  0.4136024731810553  1.0000
  O   O1        1.0  0.710031966296382  0.05798947567179159  0.4211870993639923  1.0000
  C   C22       1.0  0.7465399678075436  0.8776383306803515  0.3115559414609612  1.0000
  C   C23       1.0  0.8089340595885899  0.826995089047575  0.2525972497028177  1.0000
  C   C24       1.0  0.7965873552833713  0.7400388536788646  0.1555081307491959  1.0000
  C   C25       1.0  0.7220482006985199  0.7028572824343003  0.11465813651705181  1.0000
  C   C26       1.0  0.6593956589389529  0.75452359665646  0.1722839758797472  1.0000
  C   C27       1.0  0.6716722141924899  0.841535671450454  0.2694137866844297  1.0000
  O   O2        1.0  0.7127405931687414  0.615193166026856  0.017000738525353217  1.0000
  C   C28       1.0  0.6404323625190401  0.5691757586072371  0.9662276788148314  1.0000
  H   H9        1.0  0.04084491649288993  0.28228348718957985  0.8123007249079303  1.0000
  H   H10       1.0  0.8331227587798463  0.17445798378838437  0.5182819015611582  1.0000
  H   H11       1.0  0.8325106547095453  0.7572053885918354  0.5210203110519736  1.0000
  H   H12       1.0  0.0017996501891357555  0.9567332453186166  0.7558552752206338  1.0000
  H   H13       1.0  0.9456059402844349  0.5132613204110346  0.677640956450702  1.0000
  H   H14       1.0  0.8672672597144371  0.8556387038524063  0.28049223597157114  1.0000
  H   H15       1.0  0.8452710879467618  0.7017028134859803  0.11130343654918762  1.0000
  H   H16       1.0  0.601030138812567  0.7281550434432439  0.14274175240449405  1.0000
  H   H17       1.0  0.6225595258235223  0.8798068483091733  0.31253269802184547  1.0000
  H   H18       1.0  0.6499976182798766  0.5011741641266323  0.8905349035494577  1.0000
  H   H19       1.0  0.6067131507873609  0.6520375906438076  0.9209642424808959  1.0000
  H   H20       1.0  0.6082387350871512  0.5162255991273055  0.045133228371135425  1.0000
  C   C29       1.0  0.921304479829024  0.4609910011017384  0.26153444161518347  1.0000
  C   C30       1.0  0.8484619901339853  0.3991269093320533  0.2588672843056077  1.0000
  C   C31       1.0  0.8113918581293986  0.36923332415636567  0.14032367456044814  1.0000
  C   C32       1.0  0.8486780871283607  0.39929991112869073  0.023630649174265272  1.0000
  C   C33       1.0  0.9214243002538158  0.4612372951698047  0.024278025980514654  1.0000
  C   C34       1.0  0.9572547983243911  0.49197834397173384  0.14372932774614422  1.0000
  C   C35       1.0  0.7348618588161915  0.30259098526734407  0.13987006140230562  1.0000
  O   O3        1.0  0.7191680981441666  0.22269706425922145  0.23447719609307738  1.0000
  C   C36       1.0  0.6761386761737272  0.32657740876505015  0.03216186511785657  1.0000
  C   C37       1.0  0.6702679258813923  0.44969618570113834  0.9638410009313473  1.0000
  C   C38       1.0  0.6141165397178651  0.47142329326983345  0.8635618373185715  1.0000
  C   C39       1.0  0.5624842034627273  0.3715012570672731  0.830286671474921  1.0000
  C   C40       1.0  0.5675481460495034  0.24854079270728094  0.8994598778836993  1.0000
  C   C41       1.0  0.6236926266824342  0.2266861815726862  0.9998108701503527  1.0000
  O   O4        1.0  0.5072608112852737  0.39824899442842326  0.7287948207050281  1.0000
  H   H21       1.0  0.05888906329328658  0.5772427981520047  0.4738861200255391  1.0000
  H   H22       1.0  0.8200498246992421  0.3751442637509348  0.34907870808864083  1.0000
  H   H23       1.0  0.8212456810812687  0.3730208821159924  0.9323337095414446  1.0000
  H   H24       1.0  0.013373395780843513  0.5397543525647972  0.14496153055194738  1.0000
  H   H25       1.0  0.7085278723547077  0.5296200340953872  0.988797540868208  1.0000
  H   H26       1.0  0.6104836064943825  0.5667260517196595  0.8117107844925093  1.0000
  H   H27       1.0  0.5284070668770464  0.16926425458152236  0.8765282175877068  1.0000
  H   H28       1.0  0.6265800988016852  0.13116898465398075  0.051487830716700156  1.0000
  H   H29       1.0  0.41527416458459504  0.3531633988664962  0.6038221857759671  1.0000
  H   H30       1.0  0.41382827274229667  0.272190388012111  0.7653292975184689  1.0000
  H   H31       1.0  0.47988001851304163  0.22196781898026388  0.6485131293717523  1.0000
  Zn  Zn1       1.0  0.8372962871760791  0.457443083657541  0.6360421993155101  1.0000
  Zn  Zn2       1.0  0.005425135133733105  0.46478427992366234  0.6497690540377867  1.0000
  C   C42       1.0  0.9213987047222199  0.45601681660981797  0.8801023988028099  1.0000
  C   C43       1.0  0.9213245539573476  0.4662122658550325  0.40570913210582615  1.0000
  C   C44       1.0  0.921415777338413  0.6983127249937602  0.6377583543959866  1.0000
  C   C45       1.0  0.9213074236120053  0.22391479463130248  0.6480532408858153  1.0000
  O   O5        1.0  0.985135311265907  0.4707448497876825  0.4593047444547851  1.0000
  O   O6        1.0  0.9851938524861192  0.4570550509019691  0.8369247776071548  1.0000
  O   O7        1.0  0.9852067789429925  0.652712024052178  0.6412301770573414  1.0000
  O   O8        1.0  0.9851223274249509  0.2750878833915227  0.6549992429462357  1.0000
  O   O9        1.0  0.8575990375107357  0.6471394776859023  0.6308120057159281  1.0000
  O   O10       1.0  0.8575861114088865  0.4514840648717023  0.8265065372014425  1.0000
  O   O11       1.0  0.8575275699837265  0.46517381799788166  0.44888494263552947  1.0000
  O   O12       1.0  0.857514586152728  0.2695168423438945  0.6445795384942106  1.0000
