data_image0
_chemical_formula_structural       NC11NC3H8C7OC4NC3H8C7OC3FC3H8Zn2C4O8
_chemical_formula_sum              "N3 C45 H24 O10 F1 Zn2"
_cell_length_a       17.807433833752565
_cell_length_b       10.299371701877257
_cell_length_c       10.29938172300155
_cell_angle_alpha    85.59571719418345
_cell_angle_beta     88.50784037207825
_cell_angle_gamma    90.69533246875125

_space_group_name_H-M_alt    "P 1"
_space_group_IT_number       1

loop_
  _space_group_symop_operation_xyz
  'x, y, z'

loop_
  _atom_site_type_symbol
  _atom_site_label
  _atom_site_symmetry_multiplicity
  _atom_site_fract_x
  _atom_site_fract_y
  _atom_site_fract_z
  _atom_site_occupancy
  N   N1        1.0  0.7078022353012959  0.43810299208127357  0.5351707437636515  1.0000
  C   C1        1.0  0.6569682350734434  0.4033933563655101  0.6017205627004094  1.0000
  C   C2        1.0  0.593725614857024  0.3602174298199101  0.6845000442097555  1.0000
  C   C3        1.0  0.6054260046147666  0.2966987259090832  0.807195530257294  1.0000
  C   C4        1.0  0.5440913263403833  0.255201989920689  0.8876916868091674  1.0000
  C   C5        1.0  0.47090177302159864  0.27691085389292813  0.8461330398394837  1.0000
  C   C6        1.0  0.4582246815484553  0.3405839907445804  0.7229774128601671  1.0000
  C   C7        1.0  0.3804675035341302  0.363622259613511  0.6786385957942964  1.0000
  C   C8        1.0  0.3617034947203427  0.34671641426574684  0.5490525065548275  1.0000
  C   C9        1.0  0.2884840021304625  0.36838653869271387  0.5074497743475146  1.0000
  C   C10       1.0  0.2330856123420407  0.4072808247959647  0.5946129727325584  1.0000
  C   C11       1.0  0.15772969020451597  0.42960906429370627  0.5516491841711718  1.0000
  N   N2        1.0  0.0971489015625424  0.44755931002792493  0.5171094250517867  1.0000
  C   C12       1.0  0.2511581667594476  0.42439711037113703  0.7236680042179511  1.0000
  C   C13       1.0  0.324324852013523  0.4026921219661812  0.7655261527059146  1.0000
  C   C14       1.0  0.520416668536907  0.382076166035908  0.6424976704710702  1.0000
  H   H1        1.0  0.6618845092345792  0.27929282919003495  0.8405547832686247  1.0000
  H   H2        1.0  0.5532687348479755  0.20577407679792303  0.9824099739798962  1.0000
  H   H3        1.0  0.4242485075149325  0.24237113734607305  0.9095596428334737  1.0000
  H   H4        1.0  0.4033898814177768  0.3150567012402461  0.48032486268466107  1.0000
  H   H5        1.0  0.2750575392758187  0.3544798701121121  0.40741052685203966  1.0000
  H   H6        1.0  0.20875495499558958  0.4548336603361027  0.791880444510971  1.0000
  H   H7        1.0  0.3372230720185332  0.41814415624401335  0.8653831975111108  1.0000
  H   H8        1.0  0.5119378395866614  0.43286649576261005  0.5480141847595177  1.0000
  C   C15       1.0  0.9024398835395517  0.06145981558493219  0.5260147241984894  1.0000
  C   C16       1.0  0.9061128559071153  0.07085475994402413  0.3891827743240235  1.0000
  C   C17       1.0  0.9071123581136991  0.9584036627002049  0.3201457065222289  1.0000
  C   C18       1.0  0.9061220963863054  0.835586750266114  0.38949973381058656  1.0000
  C   C19       1.0  0.9025184313019129  0.8241926495249265  0.5262762860457261  1.0000
  C   C20       1.0  0.9005005177111801  0.937726283574708  0.5937357321508175  1.0000
  C   C21       1.0  0.911779754877294  0.9681994959517564  0.17568271750722486  1.0000
  O   O1        1.0  0.947947274050448  0.8833169645780469  0.11906041569291692  1.0000
  C   C22       1.0  0.8754047070115596  0.07420823865356274  0.0954599268400036  1.0000
  C   C23       1.0  0.9076003183205362  0.11960362312951676  0.9739990584859535  1.0000
  C   C24       1.0  0.8732061349989578  0.21865121927270348  0.8968057053363038  1.0000
  C   C25       1.0  0.9068595757007436  0.26526549977704894  0.7730911139759785  1.0000
  N   N3        1.0  0.9339154415771209  0.30273371996416865  0.67364236603018  1.0000
  C   C26       1.0  0.8060556202870264  0.2722090544547562  0.9400916072151642  1.0000
  C   C27       1.0  0.7732261044265827  0.22658719960858334  0.05984237425161055  1.0000
  C   C28       1.0  0.8074045844688219  0.12783183604555326  0.1370343363070805  1.0000
  H   H9        1.0  0.909042084635941  0.16583603234851174  0.33616155431313355  1.0000
  H   H10       1.0  0.9074494210712848  0.748767827409797  0.3364271911317099  1.0000
  H   H11       1.0  0.8976693353939171  0.929679586345172  0.6992233931362684  1.0000
  H   H12       1.0  0.9017663849621327  0.4923705109386918  0.5788351636596936  1.0000
  H   H13       1.0  0.9597055515548417  0.0787698656669127  0.9400058322684726  1.0000
  H   H14       1.0  0.7789828666202304  0.34875225557129563  0.8811094607463215  1.0000
  H   H15       1.0  0.7209927833073192  0.2674337348223852  0.09268856423025841  1.0000
  H   H16       1.0  0.7802478206123267  0.09248556746867355  0.22844824653542628  1.0000
  C   C29       1.0  0.9025423910277954  0.4427266377847785  0.1447748717582511  1.0000
  C   C30       1.0  0.9263034269384328  0.3128490202917418  0.15248850503206457  1.0000
  C   C31       1.0  0.9391040600211343  0.24781839780601111  0.0391325720081066  1.0000
  C   C32       1.0  0.9262316025901048  0.31314041052426034  0.9172258887926882  1.0000
  C   C33       1.0  0.9024158954383183  0.44292581157862765  0.9075161656314551  1.0000
  C   C34       1.0  0.8908984752234819  0.5070764672446253  0.02186494433568353  1.0000
  C   C35       1.0  0.9634336480999038  0.11024059475074832  0.047201200856145334  1.0000
  O   O2        1.0  0.940286941110898  0.03643416999290094  0.9640682260412149  1.0000
  C   C36       1.0  0.014027143568275717  0.056396180081599516  0.14948028954908077  1.0000
  C   C37       1.0  0.007961462037245017  0.9242877548671167  0.19498893404298  1.0000
  C   C38       1.0  0.05599586994632055  0.8722471665180762  0.2902986393418099  1.0000
  F   F1        1.0  0.04933007974261417  0.7450178500249209  0.33423247468173867  1.0000
  C   C39       1.0  0.11087279407578388  0.9512037294832892  0.3402478737601695  1.0000
  C   C40       1.0  0.11802024656854915  0.0821329780859803  0.2946235695264972  1.0000
  C   C41       1.0  0.07013485760366776  0.13458895688252603  0.19937807044039668  1.0000
  H   H17       1.0  0.8565987532496662  0.687181426984681  0.33763692075307233  1.0000
  H   H18       1.0  0.9340814884480505  0.26164736196432226  0.24691541016239338  1.0000
  H   H19       1.0  0.9355380943710906  0.26281686197326115  0.8297507878215584  1.0000
  H   H20       1.0  0.8725801344825317  0.6072021226498241  0.015114268757412617  1.0000
  H   H21       1.0  0.9656333213047668  0.8617433198951034  0.15755815382967578  1.0000
  H   H22       1.0  0.14808084688136947  0.9108989178468873  0.4139241879375089  1.0000
  H   H23       1.0  0.16093770708908095  0.14294398532231445  0.3326653281114114  1.0000
  H   H24       1.0  0.07753157575386971  0.23572771119455968  0.1638093257469473  1.0000
  Zn  Zn1       1.0  0.8201592710333546  0.4408284084661196  0.5299661206904107  1.0000
  Zn  Zn2       1.0  0.9847918482210339  0.4448232767462987  0.5223246305445175  1.0000
  C   C42       1.0  0.9024376170348586  0.4377144387622369  0.763340013828014  1.0000
  C   C43       1.0  0.9025153001497629  0.44793892873764896  0.2889507819910462  1.0000
  C   C44       1.0  0.9025005733280976  0.680018478351837  0.5210518333475707  1.0000
  C   C45       1.0  0.9024522875067723  0.2056333274901416  0.5312390337828556  1.0000
  O   O3        1.0  0.9649834126729978  0.45119858711058747  0.3344376268989875  1.0000
  O   O4        1.0  0.9649218212196373  0.4374858131524224  0.7120530805276828  1.0000
  O   O5        1.0  0.964971816776104  0.6331493693896972  0.516403700116417  1.0000
  O   O6        1.0  0.9649333609556872  0.2555350387749855  0.5300869125458545  1.0000
  O   O7        1.0  0.8400177021176838  0.6301166450755924  0.5222038412899084  1.0000
  O   O8        1.0  0.839967706729951  0.4344546491343841  0.7178531529906429  1.0000
  O   O9        1.0  0.8400292984875134  0.448167377429698  0.3402361379363772  1.0000
  O   O10       1.0  0.8399792467500292  0.2525038198305827  0.5358855209484776  1.0000
