data_image0
_chemical_formula_structural       NC8NC6H8C7OCH10C7F3H5Zn2C4O8
_chemical_formula_sum              "N2 C33 H23 O9 F3 Zn2"
_cell_length_a       17.457602349358154
_cell_length_b       10.300832083147542
_cell_length_c       9.272721663655245
_cell_angle_alpha    85.8570081302309
_cell_angle_beta     93.38388695232669
_cell_angle_gamma    91.68357009181102

_space_group_name_H-M_alt    "P 1"
_space_group_IT_number       1

loop_
  _space_group_symop_operation_xyz
  'x, y, z'

loop_
  _atom_site_type_symbol
  _atom_site_label
  _atom_site_symmetry_multiplicity
  _atom_site_fract_x
  _atom_site_fract_y
  _atom_site_fract_z
  _atom_site_occupancy
  N   N1        1.0  0.7150271441831056  0.4447895500383993  0.4737538490679387  1.0000
  C   C1        1.0  0.65389534962587  0.3988075901914947  0.4619795485417975  1.0000
  C   C2        1.0  0.5778448646407368  0.3416118008986655  0.44734291575186763  1.0000
  C   C3        1.0  0.519712718588101  0.3822009182710522  0.5305242339405001  1.0000
  C   C4        1.0  0.4451034651860709  0.3271267272026013  0.5165693058152621  1.0000
  C   C5        1.0  0.3834038377416921  0.36998423022312954  0.604661525893408  1.0000
  C   C6        1.0  0.30855917451009596  0.38812993602651447  0.5427119496003976  1.0000
  C   C7        1.0  0.2504276111151866  0.42853576669184346  0.626013254345297  1.0000
  C   C8        1.0  0.17413296058695013  0.4472745171013467  0.5616024965678139  1.0000
  N   N2        1.0  0.1128049792440139  0.4623340942078454  0.5098164175600077  1.0000
  C   C9        1.0  0.2666512418806093  0.45104193672731596  0.7718289061236929  1.0000
  C   C10       1.0  0.340713242402757  0.4332874115249442  0.8342088787947486  1.0000
  C   C11       1.0  0.3988356276919644  0.3930642524980233  0.7514159442880488  1.0000
  C   C12       1.0  0.4299074130079548  0.23077781645943696  0.4178416246515595  1.0000
  C   C13       1.0  0.48802995467018306  0.1904696548539948  0.3351045251581617  1.0000
  C   C14       1.0  0.5618573642498467  0.24565937608051436  0.3496702976013024  1.0000
  H   H1        1.0  0.5324071889503301  0.45777161287222384  0.6045090424604136  1.0000
  H   H2        1.0  0.29567178508056097  0.3725738836328311  0.42938829597485184  1.0000
  H   H3        1.0  0.22210176544988913  0.48226040496804223  0.8371722082899895  1.0000
  H   H4        1.0  0.35308484290072795  0.45039882840212053  0.9471173115609737  1.0000
  H   H5        1.0  0.45556761818355845  0.3783392262703842  0.8026370604311577  1.0000
  H   H6        1.0  0.37336866994703094  0.18538526098783553  0.4060269778431831  1.0000
  H   H7        1.0  0.47584284853715914  0.11600841911878114  0.2597881833810134  1.0000
  H   H8        1.0  0.6064096566754038  0.2135742340812672  0.2848950916314186  1.0000
  C   C15       1.0  0.9139418824777842  0.07222695941684833  0.49193878393690205  1.0000
  C   C16       1.0  0.891874149059724  0.07993832038420212  0.3435210394136239  1.0000
  C   C17       1.0  0.8798686455804726  0.9666368028675796  0.26914119148054394  1.0000
  C   C18       1.0  0.8918169149878686  0.8446749609779942  0.34313486389663517  1.0000
  C   C19       1.0  0.9138976612229481  0.8348870499941495  0.4916446561056236  1.0000
  C   C20       1.0  0.9246509967053235  0.9491830767631754  0.5652415871091452  1.0000
  C   C21       1.0  0.8584522087712368  0.9761764641743821  0.10947525585998008  1.0000
  O   O1        1.0  0.9262287094852509  0.9846702409924775  0.03318806077430714  1.0000
  C   C22       1.0  0.9068953440091074  0.9937056729816038  0.8830833757213767  1.0000
  H   H9        1.0  0.9232637769778907  0.3967384292472713  0.5484319131413926  1.0000
  H   H10       1.0  0.883948420425204  0.17398637317354138  0.2851574597994666  1.0000
  H   H11       1.0  0.883851197642144  0.7575725315097629  0.2845061115792784  1.0000
  H   H12       1.0  0.9416770885284763  0.9424731515623379  0.6797041322419457  1.0000
  H   H13       1.0  0.9563910404584369  0.6092381795257458  0.7714335304240698  1.0000
  H   H14       1.0  0.8229985772764974  0.06376367045470999  0.08215514469719554  1.0000
  H   H15       1.0  0.8230278067080435  0.8886738438915076  0.08182715715159739  1.0000
  H   H16       1.0  0.9606627668099562  0.0002992477842988992  0.8246224183572433  1.0000
  H   H17       1.0  0.8740582407051327  0.08301545723782434  0.8500362671056516  1.0000
  H   H18       1.0  0.8740698651765039  0.9055321724515502  0.8496799975894689  1.0000
  C   C23       1.0  0.9118890683086147  0.4513612331030208  0.06816517892035612  1.0000
  C   C24       1.0  0.9445621307196193  0.34658640452509926  0.1538900677811863  1.0000
  C   C25       1.0  0.9839620679535945  0.24983247366438222  0.09159453378576687  1.0000
  C   C26       1.0  0.9883373857740844  0.2560052517873266  0.9408391066794  1.0000
  C   C27       1.0  0.9552095904975532  0.3580563690249441  0.8541057182965757  1.0000
  C   C28       1.0  0.9159504682608903  0.45575279818714454  0.9154182112113944  1.0000
  C   C29       1.0  0.016817221795925045  0.13647756399200747  0.18496421514671946  1.0000
  F   F1        1.0  0.04266363623148585  0.17535902467867626  0.3195260446291759  1.0000
  F   F2        1.0  0.07800252562769128  0.08546350627240384  0.12141179813645174  1.0000
  F   F3        1.0  0.9604722081852699  0.04052083283427211  0.20292723960417458  1.0000
  H   H19       1.0  0.8632182139584156  0.7584418482528341  0.1398544263375936  1.0000
  H   H20       1.0  0.9407298927900573  0.34180393693716216  0.27039002542359913  1.0000
  H   H21       1.0  0.01671138384761695  0.18097395409077086  0.8895326562808156  1.0000
  H   H22       1.0  0.9584985817454083  0.3586167561170682  0.7377491230489923  1.0000
  H   H23       1.0  0.7781985740954906  0.6687017814244791  0.7815554405525638  1.0000
  Zn  Zn1       1.0  0.8298172750692421  0.44984908728281203  0.4841690580204497  1.0000
  Zn  Zn2       1.0  0.9980148913411043  0.45726397130731544  0.49941302337945886  1.0000
  C   C30       1.0  0.915181348835268  0.44974938702699774  0.7552711025421224  1.0000
  C   C31       1.0  0.9126526548714871  0.4573653917413554  0.22831128627983688  1.0000
  C   C32       1.0  0.9138744924647317  0.6906980887461049  0.4859512635317167  1.0000
  C   C33       1.0  0.9139594543071242  0.21641512772674149  0.49763119760091795  1.0000
  O   O2        1.0  0.9767390406320364  0.46218868683523684  0.2878427904566627  1.0000
  O   O3        1.0  0.9787530600633424  0.45055283555104664  0.7073090004592073  1.0000
  O   O4        1.0  0.9776969037465763  0.6451219292435675  0.4898312464692069  1.0000
  O   O5        1.0  0.977795139035316  0.2676195993412709  0.5053204310770723  1.0000
  O   O6        1.0  0.8500369699774024  0.6394934567198952  0.47826164511323066  1.0000
  O   O7        1.0  0.8510931258314391  0.4449259227939198  0.6957393215829499  1.0000
  O   O8        1.0  0.8490790981397511  0.4565617198384842  0.27627137719067796  1.0000
  O   O9        1.0  0.8501351970588896  0.2619926236170018  0.4937491259710729  1.0000
