data_image0
_chemical_formula_structural       NC5NC4H6C12H10C12H9Zn2C4O8
_chemical_formula_sum              "N2 C37 H25 Zn2 O8"
_cell_length_a       13.854160002989762
_cell_length_b       14.994057918209652
_cell_length_c       14.388202922059104
_cell_angle_alpha    85.84309809662012
_cell_angle_beta     92.42189757495021
_cell_angle_gamma    89.99018036314698

_space_group_name_H-M_alt    "P 1"
_space_group_IT_number       1

loop_
  _space_group_symop_operation_xyz
  'x, y, z'

loop_
  _atom_site_type_symbol
  _atom_site_label
  _atom_site_symmetry_multiplicity
  _atom_site_fract_x
  _atom_site_fract_y
  _atom_site_fract_z
  _atom_site_occupancy
  N   N1        1.0  0.8637045336434225  0.9715612325018236  0.9740775843936922  1.0000
  C   C1        1.0  0.7896970297976145  0.986980205810657  0.9359801136170423  1.0000
  C   C2        1.0  0.697630612685361  0.006161824851746997  0.8885854012193586  1.0000
  C   C3        1.0  0.6120936642693167  0.9881385779641955  0.9348621714138317  1.0000
  C   C4        1.0  0.5224881996563306  0.006161833646235918  0.8885853862683011  1.0000
  C   C5        1.0  0.43458889104425513  0.9869801149584086  0.9359801727280757  1.0000
  N   N2        1.0  0.3639309630503105  0.9715611932251129  0.9740775843350928  1.0000
  C   C6        1.0  0.5184527872354668  0.042583479212364723  0.7960441125669635  1.0000
  C   C7        1.0  0.6039538311840212  0.06193639162920108  0.7497006909981299  1.0000
  C   C8        1.0  0.599560417937842  0.09847294702630839  0.6497463741865065  1.0000
  C   C9        1.0  0.6935298737149393  0.042583478123468875  0.7960440543166334  1.0000
  H   H1        1.0  0.6152423166286808  0.9598800906405955  0.006487413325888865  1.0000
  H   H2        1.0  0.4490015692055127  0.055893760494260675  0.7601382231408627  1.0000
  H   H3        1.0  0.663733442749615  0.14056325338613118  0.6344013904451152  1.0000
  H   H4        1.0  0.5340249669336913  0.14056325474108203  0.6344014324399212  1.0000
  H   H5        1.0  0.597544528765524  0.04226520690740368  0.6035736106331283  1.0000
  H   H6        1.0  0.7598245258558548  0.05589382981708257  0.760138168025926  1.0000
  C   C10       1.0  0.11386216632728917  0.7095929756234908  0.9740680067606982  1.0000
  C   C11       1.0  0.17248178573416584  0.6574655879815627  0.03908909970821117  1.0000
  C   C12       1.0  0.17243518388227397  0.5642421199697725  0.03912759384656592  1.0000
  C   C13       1.0  0.11384965169336402  0.5210922731546781  0.974117525248179  1.0000
  C   C14       1.0  0.055284628895619026  0.5733188849566131  0.9090990843964724  1.0000
  C   C15       1.0  0.0552698704110137  0.6665426118953256  0.9091098365685214  1.0000
  C   C16       1.0  0.11382739299393128  0.42201780797155236  0.9741251625178122  1.0000
  C   C17       1.0  0.11160881011083079  0.38019425391232003  0.8897254077066226  1.0000
  C   C18       1.0  0.11162783153975987  0.28696986032548305  0.8897246317649168  1.0000
  C   C19       1.0  0.11378295564696561  0.23352260812475428  0.9740952237441016  1.0000
  C   C20       1.0  0.11596208513442981  0.27524434426996564  0.058529857738294194  1.0000
  C   C21       1.0  0.11602456548294278  0.3684651154737397  0.05853084878204762  1.0000
  H   H7        1.0  0.05467238928898663  0.9269729262479691  0.9082480204766815  1.0000
  H   H8        1.0  0.21865649737283066  0.6886887791837922  0.08988093327011426  1.0000
  H   H9        1.0  0.21929001059863146  0.5259430504194313  0.08930197586447847  1.0000
  H   H10       1.0  0.008415192254457745  0.542019332434455  0.8589330247659895  1.0000
  H   H11       1.0  0.00910280639488857  0.7048199133887388  0.8583036291446686  1.0000
  H   H12       1.0  0.11116641952120203  0.4195911283414734  0.8235900526499647  1.0000
  H   H13       1.0  0.11019883418481564  0.25683857391788373  0.823530009963907  1.0000
  H   H14       1.0  0.11146405605062147  0.02666991160709603  0.8887135986302932  1.0000
  H   H15       1.0  0.11737516716953643  0.2358765984480857  0.12471820485872517  1.0000
  H   H16       1.0  0.11648377477037572  0.39866634811374624  0.1246638091101786  1.0000
  C   C22       1.0  0.10183493504569639  0.9702952497927217  0.7009395841725417  1.0000
  C   C23       1.0  0.004831374371955905  0.9594592144775762  0.7242696289661019  1.0000
  C   C24       1.0  0.9327306810889118  0.9512757729556033  0.6546838843660755  1.0000
  C   C25       1.0  0.9563352643747339  0.9537981639138301  0.5611786725460641  1.0000
  C   C26       1.0  0.05280641432792476  0.9646513737965847  0.536060120280619  1.0000
  C   C27       1.0  0.12516053977648167  0.9728201986055072  0.6065895626583533  1.0000
  C   C28       1.0  0.07795681448565568  0.9674546653185602  0.436548482451754  1.0000
  C   C29       1.0  0.033650874591158335  0.9088256885034234  0.37595076583201137  1.0000
  C   C30       1.0  0.05734228591545931  0.9114378901553141  0.28232390484745373  1.0000
  C   C31       1.0  0.12581018336978483  0.9728203607501522  0.24722366884556923  1.0000
  C   C32       1.0  0.17006725614394133  0.03147221169068937  0.3077078202223844  1.0000
  C   C33       1.0  0.1464300826964741  0.028808753967640262  0.40135494712812325  1.0000
  H   H17       1.0  0.3275827891515868  0.9954910508873603  0.800676373582124  1.0000
  H   H18       1.0  0.8581838978814271  0.9431886534851334  0.6732874993542444  1.0000
  H   H19       1.0  0.8989738461374175  0.9484561227926431  0.5084008981958179  1.0000
  H   H20       1.0  0.199830887127465  0.9799206307084187  0.5879360281739233  1.0000
  H   H21       1.0  0.9815252036963356  0.8600565274898674  0.4012490999661309  1.0000
  H   H22       1.0  0.02216030100887488  0.8651891089026014  0.2375059728059234  1.0000
  H   H23       1.0  0.2368946586671281  0.039503011524884904  0.04635002752966419  1.0000
  H   H24       1.0  0.2228809151147841  0.07970382928429864  0.28271463935487595  1.0000
  H   H25       1.0  0.18084744726103733  0.07564407473321366  0.4459886538978115  1.0000
  Zn  Zn1       1.0  0.008059317590182614  0.9715588576363101  0.9740829613940563  1.0000
  Zn  Zn2       1.0  0.21957651664079209  0.9715563033193594  0.9740798459352233  1.0000
  C   C34       1.0  0.1212767116201021  0.9687891651863425  0.14396408002327998  1.0000
  C   C35       1.0  0.10636143620854455  0.9743271217567401  0.8041988186238107  1.0000
  C   C36       1.0  0.11363026608892186  0.13447162891629574  0.9703835486011001  1.0000
  C   C37       1.0  0.11400781190216991  0.8086435864607273  0.9777793995810933  1.0000
  O   O1        1.0  0.18815024664605376  0.9756753935834513  0.8388523784878132  1.0000
  O   O2        1.0  0.2000245494378068  0.9674382804678773  0.1093078878091081  1.0000
  O   O3        1.0  0.19384890834193813  0.10122896975413931  0.969140380638772  1.0000
  O   O4        1.0  0.19432581250367664  0.8418847103572942  0.9790198159183732  1.0000
  O   O5        1.0  0.033309949546644436  0.10123045060019556  0.9691429914070777  1.0000
  O   O6        1.0  0.03948558829941362  0.9674408328818134  0.10931044903848214  1.0000
  O   O7        1.0  0.02761123649687325  0.9756779097412424  0.8388538214174046  1.0000
  O   O8        1.0  0.03378680541208775  0.8418872204568005  0.9790213285839114  1.0000
