data_image0
_chemical_formula_structural       NC6NC3H6C6ClH5C7NH4Zn2C4O8
_chemical_formula_sum              "N3 C26 H15 Cl1 Zn2 O8"
_cell_length_a       14.934028789175542
_cell_length_b       10.30297070629231
_cell_length_c       9.275157849593905
_cell_angle_alpha    86.11098826397364
_cell_angle_beta     89.71635168279133
_cell_angle_gamma    89.96080423122717

_space_group_name_H-M_alt    "P 1"
_space_group_IT_number       1

loop_
  _space_group_symop_operation_xyz
  'x, y, z'

loop_
  _atom_site_type_symbol
  _atom_site_label
  _atom_site_symmetry_multiplicity
  _atom_site_fract_x
  _atom_site_fract_y
  _atom_site_fract_z
  _atom_site_occupancy
  N   N1        1.0  0.8476242140995971  0.4062770614945834  0.4098629897729364  1.0000
  C   C1        1.0  0.7701400683950069  0.40528256721651434  0.4091843105769126  1.0000
  C   C2        1.0  0.673745894034033  0.4040408454824447  0.40833710583938765  1.0000
  C   C3        1.0  0.6257996212559555  0.5007460359648725  0.4742109983768998  1.0000
  C   C4        1.0  0.5322897904516193  0.49974902868488935  0.47353172541248306  1.0000
  C   C5        1.0  0.48581358906454364  0.4020961839945627  0.40701237766133347  1.0000
  C   C6        1.0  0.38916383766572715  0.40419143560797216  0.40844091164947327  1.0000
  N   N2        1.0  0.3116805557216477  0.40585428477140084  0.4095749617373261  1.0000
  C   C7        1.0  0.5337568342619452  0.30405309354359944  0.34022657945640056  1.0000
  C   C8        1.0  0.4856422722475401  0.1978841632684465  0.26790745181558706  1.0000
  C   C9        1.0  0.6278958007579386  0.3060674502087031  0.341598776225986  1.0000
  H   H1        1.0  0.6606991490715484  0.5769407608266026  0.526114104498228  1.0000
  H   H2        1.0  0.4961104882341374  0.5753569424369023  0.5250349626985074  1.0000
  H   H3        1.0  0.4431405137039975  0.24129108403055669  0.17932322986284  1.0000
  H   H4        1.0  0.442673778590027  0.14200217278017682  0.3480005010126761  1.0000
  H   H5        1.0  0.5332317646044253  0.12911695457795358  0.22105800827150768  1.0000
  H   H6        1.0  0.6655662513583822  0.23146534956552964  0.2907809707674003  1.0000
  C   C10       1.0  0.07965665504221087  0.024818265025033485  0.4097251803338289  1.0000
  C   C11       1.0  0.17204056633357023  0.021831774290211433  0.43742564942085016  1.0000
  C   C12       1.0  0.21787899763367602  0.9033931125143871  0.4511697821079754  1.0000
  C   C13       1.0  0.17204056580899296  0.786723805032957  0.4374255816447048  1.0000
  C   C14       1.0  0.07965666436671802  0.7873032075447188  0.4097252628247803  1.0000
  C   C15       1.0  0.03391503866288636  0.9069435643834699  0.39601002392116436  1.0000
  Cl  Cl1       1.0  0.3332885141379165  0.9011657901168276  0.4857741684284464  1.0000
  H   H7        1.0  0.04485725597025799  0.35324633510308057  0.399290091950973  1.0000
  H   H8        1.0  0.20878389339446943  0.11116923778026647  0.44844267545274613  1.0000
  H   H9        1.0  0.20878385827411605  0.6959680440861558  0.4484425719347791  1.0000
  H   H10       1.0  0.9626657628244739  0.9083185091490381  0.3746465451103471  1.0000
  H   H11       1.0  0.0448572508395777  0.46021837079138916  0.39929036404182205  1.0000
  C   C16       1.0  0.0808448292062775  0.40238989514198953  0.9865266877566468  1.0000
  C   C17       1.0  0.15802398993391398  0.4446430896251477  0.05617481569390792  1.0000
  C   C18       1.0  0.23060981875005693  0.49710923585226907  0.9762515978157467  1.0000
  C   C19       1.0  0.2268626757003741  0.5081565712875658  0.8255949770398208  1.0000
  C   C20       1.0  0.151524482207691  0.4648503991071482  0.7546041644956021  1.0000
  C   C21       1.0  0.07846853410482274  0.4097315074113299  0.8329237336027853  1.0000
  C   C22       1.0  0.30866660865255713  0.5411696455849326  0.04920677321101995  1.0000
  N   N3        1.0  0.37140428108510526  0.5765823335140742  0.10785043116393965  1.0000
  H   H12       1.0  0.8629756596776956  0.35881459548066746  0.09449952861660549  1.0000
  H   H13       1.0  0.28262139055096974  0.5491720728887182  0.7627375721732403  1.0000
  H   H14       1.0  0.15132639128542255  0.471676179913294  0.637539847967827  1.0000
  H   H15       1.0  0.9327168215289672  0.37494100173992084  0.555607699793883  1.0000
  Zn  Zn1       1.0  0.9815408402890636  0.40615165041265766  0.4097881869025801  1.0000
  Zn  Zn2       1.0  0.17776392651757003  0.4059691633104221  0.4096615469021476  1.0000
  C   C23       1.0  0.07891568553544136  0.40317178372752127  0.6729365445400576  1.0000
  C   C24       1.0  0.08039122362413063  0.40895066732737595  0.1465133293291525  1.0000
  C   C25       1.0  0.0796681924257367  0.6431274843748245  0.4039824090461716  1.0000
  C   C26       1.0  0.07963864956083873  0.16899340760319312  0.4154675416991038  1.0000
  O   O1        1.0  0.15470462804532234  0.4110776055651373  0.2001582485165047  1.0000
  O   O2        1.0  0.15353106443321907  0.4009053589927703  0.6191950936720909  1.0000
  O   O3        1.0  0.15413771522432473  0.5946726358509835  0.40201272701357227  1.0000
  O   O4        1.0  0.15409791059994138  0.21731033711918915  0.41734050716324794  1.0000
  O   O5        1.0  0.0052067892454052914  0.5948104766675126  0.40210922667711513  1.0000
  O   O6        1.0  0.004600138666007941  0.40104475894980074  0.6192915164952044  1.0000
  O   O7        1.0  0.005773707202228355  0.411216945251478  0.20025293868016472  1.0000
  O   O8        1.0  0.005166989449834736  0.21744966845688676  0.41743530537431983  1.0000
