data_image0
_chemical_formula_structural       NC9NC5H8C7F3H5C7ONH5Zn2C4O8
_chemical_formula_sum              "N3 C32 H18 F3 O9 Zn2"
_cell_length_a       17.807436237873137
_cell_length_b       9.272718291674593
_cell_length_c       10.297855452804892
_cell_angle_alpha    85.97219489806729
_cell_angle_beta     89.38396818287444
_cell_angle_gamma    87.96869977406762

_space_group_name_H-M_alt    "P 1"
_space_group_IT_number       1

loop_
  _space_group_symop_operation_xyz
  'x, y, z'

loop_
  _atom_site_type_symbol
  _atom_site_label
  _atom_site_symmetry_multiplicity
  _atom_site_fract_x
  _atom_site_fract_y
  _atom_site_fract_z
  _atom_site_occupancy
  N   N1        1.0  0.701565760164103  0.5414924700474808  0.5674047258692748  1.0000
  C   C1        1.0  0.6411300950842915  0.5024224273103521  0.5561111376928147  1.0000
  C   C2        1.0  0.565954770134709  0.4538235967700046  0.5420631406599488  1.0000
  C   C3        1.0  0.5481778703580393  0.3745650187529035  0.43649718949023075  1.0000
  C   C4        1.0  0.47518698886815736  0.3272555266792727  0.4227740019965467  1.0000
  C   C5        1.0  0.4189259113602106  0.35878542084383436  0.5145814373284503  1.0000
  C   C6        1.0  0.3413549206560558  0.3086351859766061  0.5000802063092833  1.0000
  C   C7        1.0  0.278825716255615  0.3994063544461774  0.526645706025507  1.0000
  C   C8        1.0  0.2056934002288799  0.35187140630306035  0.5129346585094359  1.0000
  C   C9        1.0  0.1421025279357384  0.4456308795781223  0.5398845940492727  1.0000
  N   N2        1.0  0.0909884800341008  0.5210070090223583  0.5615515711748911  1.0000
  C   C10       1.0  0.1945078528483643  0.21327884167181677  0.47263079516475126  1.0000
  C   C11       1.0  0.2561797475171627  0.12249229496881298  0.4460567988198132  1.0000
  C   C12       1.0  0.3291943402657801  0.16958922655986042  0.4595622693225594  1.0000
  C   C13       1.0  0.4373920772111468  0.43859285386488284  0.6203704189654657  1.0000
  C   C14       1.0  0.5104366590449678  0.4856909934307944  0.6339364782420134  1.0000
  H   H1        1.0  0.5906747719519393  0.3496248860498208  0.36459972987557104  1.0000
  H   H2        1.0  0.46251116148520205  0.26767884077616433  0.3394294941281135  1.0000
  H   H3        1.0  0.2869026874727661  0.5076191495314002  0.5562693198776401  1.0000
  H   H4        1.0  0.13818970918863877  0.17548967195788823  0.4617751004136923  1.0000
  H   H5        1.0  0.2474010038004537  0.015190582384728034  0.41523877902255646  1.0000
  H   H6        1.0  0.3761187855216567  0.09659401847582715  0.44001034872180705  1.0000
  H   H7        1.0  0.3956142704062559  0.4629339428602046  0.6935585265301425  1.0000
  H   H8        1.0  0.5236356772410654  0.5466233962900058  0.7162484400715741  1.0000
  C   C15       1.0  0.8979173410188721  0.10778172841660667  0.5615842388325298  1.0000
  C   C16       1.0  0.8521206424075961  0.19153279174254464  0.4725080696460513  1.0000
  C   C17       1.0  0.8010063513670735  0.12671592510105167  0.3937605533912145  1.0000
  C   C18       1.0  0.7976803921217501  0.9755997324650187  0.4014043665486162  1.0000
  C   C19       1.0  0.8435334747670362  0.8908875557125526  0.4876690073918861  1.0000
  C   C20       1.0  0.8946441045481988  0.954706300559592  0.5673831921006887  1.0000
  C   C21       1.0  0.7538435066072597  0.21813888175828877  0.29644150396716484  1.0000
  F   F1        1.0  0.7345318771911109  0.3505585759977887  0.3439378476277124  1.0000
  F   F2        1.0  0.6882534125327278  0.15019765529155313  0.2702899764459559  1.0000
  F   F3        1.0  0.7943874087289015  0.24082540495819213  0.18205419966084027  1.0000
  H   H9        1.0  0.9871161509219654  0.1816910578185189  0.8405624965362208  1.0000
  H   H10       1.0  0.85512043687182  0.3083457934531621  0.46641753914662853  1.0000
  H   H11       1.0  0.7601264633760614  0.9225030371084166  0.33950767649687236  1.0000
  H   H12       1.0  0.8404665029941809  0.7742792322559545  0.48946270034377104  1.0000
  H   H13       1.0  0.05594119748102266  0.8302565387559292  0.721292540067701  1.0000
  C   C22       1.0  0.896309651962254  0.5313858170267352  0.18304222212576662  1.0000
  C   C23       1.0  0.819314398886594  0.5701939688088329  0.1810463741334627  1.0000
  C   C24       1.0  0.7801015111632877  0.5886442804999952  0.06303027067093447  1.0000
  C   C25       1.0  0.8192242872193091  0.5698743810963481  0.9458126136798786  1.0000
  C   C26       1.0  0.8962517982574674  0.5311021748742417  0.9459251502974608  1.0000
  C   C27       1.0  0.934246123102524  0.5117813984068189  0.06500792591616378  1.0000
  C   C28       1.0  0.6988342788124969  0.6299729003951839  0.06349937818723528  1.0000
  O   O1        1.0  0.6707905437551464  0.6929678128984753  0.15814814349353945  1.0000
  N   N3        1.0  0.6509060245435543  0.5984018737343213  0.959364217224782  1.0000
  H   H14       1.0  0.7895535917859543  0.5849041972797725  0.2717406466396937  1.0000
  H   H15       1.0  0.7902958562114067  0.5880207818503979  0.8539690855363782  1.0000
  H   H16       1.0  0.9935866672787743  0.48186796540020044  0.06579272609066233  1.0000
  H   H17       1.0  0.5946739855783874  0.6343846216386939  0.9593472451857332  1.0000
  H   H18       1.0  0.6690193402309775  0.5316745518861812  0.8869576852169136  1.0000
  Zn  Zn1       1.0  0.813944758233457  0.5355769578978955  0.5657231177348194  1.0000
  Zn  Zn2       1.0  0.9786095083881022  0.5269107624314491  0.5632437774674073  1.0000
  C   C29       1.0  0.8962832658771147  0.5254111170138485  0.801684645220378  1.0000
  C   C30       1.0  0.8962727918366432  0.5370783281386071  0.3272823628564234  1.0000
  C   C31       1.0  0.8952593512248536  0.7946216611138619  0.5611109343161504  1.0000
  C   C32       1.0  0.8972966569910737  0.2678660544272624  0.5678561319957214  1.0000
  O   O2        1.0  0.9587498600822545  0.5356937196775202  0.37474973194947087  1.0000
  O   O3        1.0  0.9587829371487185  0.5202171959039705  0.7523351328665415  1.0000
  O   O4        1.0  0.9579552706282405  0.7376081587289212  0.5580701821629435  1.0000
  O   O5        1.0  0.9595774703813236  0.3183027701617209  0.5690145861765383  1.0000
  O   O6        1.0  0.8329767400482329  0.7441849531265436  0.5599523098649437  1.0000
  O   O7        1.0  0.8338043998745374  0.526795722871844  0.7542172031727274  1.0000
  O   O8        1.0  0.8337713231706789  0.5422721969715945  0.3766302402130788  1.0000
  O   O9        1.0  0.8345989334991538  0.3248812371055636  0.5708951917559323  1.0000
