data_image0
_chemical_formula_structural       NC5NC4H6C6ClH5C6NCH7Zn2C4O8
_chemical_formula_sum              "N3 C26 H18 Cl1 Zn2 O8"
_cell_length_a       13.854160002989762
_cell_length_b       10.30297070629231
_cell_length_c       9.273390368590327
_cell_angle_alpha    86.16779528597041
_cell_angle_beta     89.99084465989662
_cell_angle_gamma    89.9983107048755

_space_group_name_H-M_alt    "P 1"
_space_group_IT_number       1

loop_
  _space_group_symop_operation_xyz
  'x, y, z'

loop_
  _atom_site_type_symbol
  _atom_site_label
  _atom_site_symmetry_multiplicity
  _atom_site_fract_x
  _atom_site_fract_y
  _atom_site_fract_z
  _atom_site_occupancy
  N   N1        1.0  0.9090480266741965  0.405626400986649  0.41020888163911384  1.0000
  C   C1        1.0  0.836721173414548  0.4277575194019833  0.35117389559032186  1.0000
  C   C2        1.0  0.7467455499568133  0.4552892246709214  0.2777321125109893  1.0000
  C   C3        1.0  0.659167233756968  0.42943427034632203  0.34944150064056645  1.0000
  C   C4        1.0  0.5716031375877627  0.45528923734867643  0.2777320893429456  1.0000
  C   C5        1.0  0.481613032043256  0.42775738766150495  0.3511739871928381  1.0000
  N   N2        1.0  0.40927445607763363  0.40562634382603696  0.41020888155147084  1.0000
  C   C6        1.0  0.5716499779760346  0.5075452107739502  0.13433229068710628  1.0000
  C   C7        1.0  0.6591955300737741  0.5353347128644095  0.06251951628078167  1.0000
  C   C8        1.0  0.6592109491272439  0.5876979071445572  0.9076328644497474  1.0000
  C   C9        1.0  0.7467270670214025  0.5075452087177151  0.13433220042568617  1.0000
  H   H1        1.0  0.6591562870399587  0.38888897692809565  0.46043030996105716  1.0000
  H   H2        1.0  0.5037825423975019  0.5266252510678144  0.07869342822090819  1.0000
  H   H3        1.0  0.7240664207148155  0.6488285039473918  0.8838517353336801  1.0000
  H   H4        1.0  0.5943579430491306  0.6488285062592312  0.8838518004064126  1.0000
  H   H5        1.0  0.6592204452273994  0.5055239482807045  0.8360906112231792  1.0000
  H   H6        1.0  0.8146055014864322  0.5266253515084609  0.0786933428122556  1.0000
  C   C10       1.0  0.15916584684503648  0.024378979382434253  0.4102151161842498  1.0000
  C   C11       1.0  0.2588315319378902  0.021501490495689824  0.4379760847000062  1.0000
  C   C12       1.0  0.3082829847725126  0.9031169124376688  0.45175023557766414  1.0000
  C   C13       1.0  0.25883153117447155  0.7863935211772932  0.4379760169158479  1.0000
  C   C14       1.0  0.15916585713727352  0.7868639219844533  0.4102151986903473  1.0000
  C   C15       1.0  0.10981883980652006  0.9064503092057191  0.39647000497622753  1.0000
  Cl  Cl1       1.0  0.4327891714127198  0.9010257592300132  0.48643020008787996  1.0000
  H   H7        1.0  0.12162352893780976  0.352765989653307  0.39975723863608836  1.0000
  H   H8        1.0  0.2984709970732633  0.11088230655935713  0.4490171728112018  1.0000
  H   H9        1.0  0.29847095891310715  0.695681112740579  0.4490170692596877  1.0000
  H   H10       1.0  0.032953638935688805  0.9077411884056809  0.37505986716593886  1.0000
  H   H11       1.0  0.12162352420191258  0.4597380255804773  0.39975751075461474  1.0000
  C   C16       1.0  0.15921059972333435  0.40157290333694484  0.9869693593034761  1.0000
  C   C17       1.0  0.2478620066056167  0.3989933078916672  0.060571853862147584  1.0000
  C   C18       1.0  0.3349671337316198  0.408482462559418  0.9851570745348717  1.0000
  C   C19       1.0  0.3356339895762963  0.4209029276523022  0.833529086350282  1.0000
  C   C20       1.0  0.24757090698467513  0.4212930616904979  0.7591169897958387  1.0000
  C   C21       1.0  0.15912114773225844  0.4096699858411832  0.8334608940517718  1.0000
  N   N3        1.0  0.42437050534511855  0.43188691607474156  0.7527408241316103  1.0000
  C   C22       1.0  0.5196713872952987  0.432039918334485  0.8197290313918062  1.0000
  H   H12       1.0  0.006861004845108101  0.3392099352746121  0.27280933768950577  1.0000
  H   H13       1.0  0.4014708655913761  0.4072878199870682  0.046278085523427485  1.0000
  H   H14       1.0  0.9341774524533439  0.3088080459785172  0.737969784392805  1.0000
  H   H15       1.0  0.4212386966644903  0.44049111641818833  0.6398649906708576  1.0000
  H   H16       1.0  0.5259356765267338  0.5153224193498585  0.8891975690685014  1.0000
  H   H17       1.0  0.5314451378826192  0.33923741193151463  0.8852829686995625  1.0000
  H   H18       1.0  0.5762368567757916  0.4418546500990887  0.7348384705192799  1.0000
  Zn  Zn1       1.0  0.05340257338680352  0.40562298832763205  0.4102172137342346  1.0000
  Zn  Zn2       1.0  0.264919909288337  0.40561924576194675  0.41021238639605473  1.0000
  C   C23       1.0  0.15913588246075805  0.4029674133641565  0.6734558755392326  1.0000
  C   C24       1.0  0.15918890996222634  0.40827646013536634  0.14697386600152762  1.0000
  C   C25       1.0  0.159161510628994  0.6426830691081932  0.4044717006763021  1.0000
  C   C26       1.0  0.15916320960972286  0.1685592453220308  0.41595811770753754  1.0000
  O   O1        1.0  0.23945135732280298  0.4105191508137016  0.20067100815870575  1.0000
  O   O2        1.0  0.23941019891525986  0.4007208987859503  0.6197546546472044  1.0000
  O   O3        1.0  0.239429811752503  0.5942943367719893  0.402548030362474  1.0000
  O   O4        1.0  0.23943167232044435  0.2169457210824945  0.4178775243780255  1.0000
  O   O5        1.0  0.078890738174211  0.5942965130097024  0.4025520757463297  1.0000
  O   O6        1.0  0.07887112534075079  0.4007246340955805  0.6197586231820464  1.0000
  O   O7        1.0  0.0789122839956522  0.4105228243062917  0.20067324384062069  1.0000
  O   O8        1.0  0.07889259897792411  0.2169493863228706  0.4178798681194176  1.0000
