data_image0
_chemical_formula_structural       NC8NC6H8C9H8C6OCH7Zn2C4O8
_chemical_formula_sum              "N2 C34 H23 O9 Zn2"
_cell_length_a       17.457602349358154
_cell_length_b       9.275152443626249
_cell_length_c       9.273891588657152
_cell_angle_alpha    85.88202133130156
_cell_angle_beta     92.54290593679646
_cell_angle_gamma    92.27213218982278

_space_group_name_H-M_alt    "P 1"
_space_group_IT_number       1

loop_
  _space_group_symop_operation_xyz
  'x, y, z'

loop_
  _atom_site_type_symbol
  _atom_site_label
  _atom_site_symmetry_multiplicity
  _atom_site_fract_x
  _atom_site_fract_y
  _atom_site_fract_z
  _atom_site_occupancy
  N   N1        1.0  0.7355159232871611  0.6006647638281184  0.47122885167428946  1.0000
  C   C1        1.0  0.6741993505518847  0.5495339146170961  0.4596018465185991  1.0000
  C   C2        1.0  0.5979189540767551  0.4859335813291521  0.4451484205751177  1.0000
  C   C3        1.0  0.539386295334881  0.531294462987665  0.5281189870583114  1.0000
  C   C4        1.0  0.4645545840792822  0.4700537278906685  0.5143403160521394  1.0000
  C   C5        1.0  0.4024300304920208  0.5179504893767386  0.6022097154417391  1.0000
  C   C6        1.0  0.32817395960208523  0.5379206273097858  0.5402758762295246  1.0000
  C   C7        1.0  0.2696398544708558  0.583078218475219  0.6233668312609284  1.0000
  C   C8        1.0  0.19395641300738234  0.6036996679392983  0.5589728090504149  1.0000
  N   N2        1.0  0.13311980415679883  0.620272226494042  0.5072002038697097  1.0000
  C   C9        1.0  0.2848694545453951  0.608540831189325  0.7689550515550334  1.0000
  C   C10       1.0  0.35834187761312675  0.589006705524865  0.8313176677971685  1.0000
  C   C11       1.0  0.41686396443067364  0.5440536788280248  0.7487339858772626  1.0000
  C   C12       1.0  0.4495447952299362  0.3626853269573352  0.41600341031705174  1.0000
  C   C13       1.0  0.5080660959488147  0.31763802114750883  0.33347574963192494  1.0000
  C   C14       1.0  0.5821119267507701  0.3790090337582215  0.3478642501796272  1.0000
  H   H1        1.0  0.5519613984545189  0.6154974766777455  0.601801121542517  1.0000
  H   H2        1.0  0.3160707146757553  0.5202820541928972  0.4271233265605745  1.0000
  H   H3        1.0  0.2400013549606964  0.643433679796123  0.834134742659288  1.0000
  H   H4        1.0  0.369941882959805  0.6083722729192087  0.9440509165324303  1.0000
  H   H5        1.0  0.47311096484575976  0.5278511061107208  0.7999412781498426  1.0000
  H   H6        1.0  0.3928251235813109  0.312209285599246  0.4043343829676178  1.0000
  H   H7        1.0  0.49601532570354534  0.2346636664961597  0.25846031986894186  1.0000
  H   H8        1.0  0.626973242237556  0.34315492551009164  0.28325455527767907  1.0000
  C   C15       1.0  0.9320540002032127  0.18673782902386263  0.4904812470257467  1.0000
  C   C16       1.0  0.904735220372285  0.2670247307512169  0.36555791943728333  1.0000
  C   C17       1.0  0.8845546907114119  0.19946220826939  0.23898778869408877  1.0000
  C   C18       1.0  0.8913775619439671  0.050413743747332006  0.23484255096575476  1.0000
  C   C19       1.0  0.9171990987472148  0.9683555189491894  0.35859554623510914  1.0000
  C   C20       1.0  0.9365889690968013  0.03418853231126074  0.48796093047329037  1.0000
  C   C21       1.0  0.8709689871169908  0.9810917687193159  0.10381551762678187  1.0000
  C   C22       1.0  0.8538816037207282  0.9230173935287957  0.9941010653756676  1.0000
  C   C23       1.0  0.8331494485847377  0.8525424279999025  0.8609818544012842  1.0000
  H   H9        1.0  0.04145450452534538  0.2763825873267969  0.7882379273497856  1.0000
  H   H10       1.0  0.9006951236126535  0.38333889098551244  0.3647390227739229  1.0000
  H   H11       1.0  0.8643149306720842  0.2638612478222103  0.14380600923322318  1.0000
  H   H12       1.0  0.9204410524642694  0.852169068381349  0.35486794694181545  1.0000
  H   H13       1.0  0.007776626076599459  0.7441768541517851  0.6912873162108983  1.0000
  H   H14       1.0  0.847135516191823  0.736631853088368  0.8757127126639289  1.0000
  H   H15       1.0  0.7707630343862831  0.8618703585568467  0.8356054348857141  1.0000
  H   H16       1.0  0.8658217963797871  0.9056600185773535  0.7706396821903425  1.0000
  C   C24       1.0  0.935557886241342  0.6067036073419576  0.06607084785935502  1.0000
  C   C25       1.0  0.9987134765325454  0.6707485802544996  0.1401474976403947  1.0000
  C   C26       1.0  0.0575749010168094  0.7453537102242715  0.06541494668095793  1.0000
  C   C27       1.0  0.0534917794620342  0.7562857455264866  0.9135664220083192  1.0000
  C   C28       1.0  0.9919433483546343  0.6914465574038087  0.8382959959292853  1.0000
  C   C29       1.0  0.9330850593622064  0.6142226656616994  0.9123713407761768  1.0000
  O   O1        1.0  0.11862576480162446  0.8075187667686681  0.14594023247448962  1.0000
  C   C30       1.0  0.18221001543279458  0.8865736004632341  0.08435374592004985  1.0000
  H   H17       1.0  0.752596433085602  0.5090797505293259  0.16084197229759065  1.0000
  H   H18       1.0  0.00160627341060615  0.665861958286668  0.2573605580293319  1.0000
  H   H19       1.0  0.09798199622511693  0.8135652213840223  0.8524787908070572  1.0000
  H   H20       1.0  0.8110404094956203  0.5428340175919  0.6261133858605001  1.0000
  H   H21       1.0  0.16213828962025678  0.9832032098188505  0.017804605708666044  1.0000
  H   H22       1.0  0.21381628558607968  0.8165380739687963  0.017048153014074467  1.0000
  H   H23       1.0  0.221667406387397  0.9230003765111411  0.17264774510853842  1.0000
  Zn  Zn1       1.0  0.8502557696045477  0.606319258372749  0.48161773837433675  1.0000
  Zn  Zn2       1.0  0.018379845809742165  0.614606006199508  0.4968231497404216  1.0000
  C   C31       1.0  0.9335200168265347  0.6070529975353368  0.7524193861238024  1.0000
  C   C32       1.0  0.9351174438269563  0.6138741794198455  0.2260218040502817  1.0000
  C   C33       1.0  0.935744587371385  0.8739510702025128  0.4826948515257596  1.0000
  C   C34       1.0  0.9328928064115222  0.3469743709885691  0.4957464154396407  1.0000
  O   O2        1.0  0.9987718043761958  0.6194191714420358  0.28547319920905173  1.0000
  O   O3        1.0  0.9974679353775836  0.6077963631371595  0.7045081347967169  1.0000
  O   O4        1.0  0.999263439763808  0.8233199031217437  0.4867035825124532  1.0000
  O   O5        1.0  0.9969762429915404  0.40389563799198847  0.5032776382313708  1.0000
  O   O6        1.0  0.8716593150502835  0.8170296237539112  0.47516324468694243  1.0000
  O   O7        1.0  0.8698638201621782  0.6015078167070695  0.6929677149834452  1.0000
  O   O8        1.0  0.8711676940048254  0.6131305593391468  0.2739310470880618  1.0000
  O   O9        1.0  0.8693721322461359  0.39760701652820574  0.49173559417588114  1.0000
