data_image0
_chemical_formula_structural       NC9NC4H8C8H6C7OCH10Zn2C4O8
_chemical_formula_sum              "N2 C33 H24 O9 Zn2"
_cell_length_a       16.32274767691083
_cell_length_b       9.27514070457351
_cell_length_c       10.300835455316063
_cell_angle_alpha    85.70757600904483
_cell_angle_beta     89.48565492192432
_cell_angle_gamma    90.11802364943966

_space_group_name_H-M_alt    "P 1"
_space_group_IT_number       1

loop_
  _space_group_symop_operation_xyz
  'x, y, z'

loop_
  _atom_site_type_symbol
  _atom_site_label
  _atom_site_symmetry_multiplicity
  _atom_site_fract_x
  _atom_site_fract_y
  _atom_site_fract_z
  _atom_site_occupancy
  N   N1        1.0  0.7804115217160074  0.567364218061776  0.5603300493440624  1.0000
  C   C1        1.0  0.727764461422467  0.5146842807276122  0.5059352780826873  1.0000
  C   C2        1.0  0.662323921796489  0.449255388421113  0.4383765372420772  1.0000
  C   C3        1.0  0.6733474591331291  0.3597603389009755  0.34596391051164677  1.0000
  C   C4        1.0  0.5937235867059986  0.316086280796239  0.30086961351152786  1.0000
  C   C5        1.0  0.5351685240404083  0.3800022595085371  0.3668715722778886  1.0000
  C   C6        1.0  0.4451311463704958  0.36310984155611165  0.3494313757337342  1.0000
  C   C7        1.0  0.38997576567150094  0.43760804110490503  0.42635352887077577  1.0000
  C   C8        1.0  0.30518187837586946  0.4231709688656933  0.41144803223734816  1.0000
  C   C9        1.0  0.24962811513394342  0.4999593799240829  0.4907341463666195  1.0000
  N   N2        1.0  0.20498175612624078  0.5616846265091131  0.5544667542562121  1.0000
  C   C10       1.0  0.274489621098329  0.3341152107260881  0.31949660283123094  1.0000
  C   C11       1.0  0.3283236670054374  0.25971568955598784  0.24267667994523642  1.0000
  C   C12       1.0  0.4129564586827567  0.27376389376653887  0.2571805348094218  1.0000
  C   C13       1.0  0.5734736603890249  0.47319881154335697  0.46310375445186613  1.0000
  H   H1        1.0  0.7320492124982108  0.324959933874349  0.31002674027143406  1.0000
  H   H2        1.0  0.584995842051356  0.24294208832596478  0.22534070415752017  1.0000
  H   H3        1.0  0.41249923417644274  0.5071310735919288  0.4981372275899765  1.0000
  H   H4        1.0  0.20902754982464772  0.3222220540797216  0.30721778987229165  1.0000
  H   H5        1.0  0.3044078771677136  0.19082275814175192  0.17154382827234094  1.0000
  H   H6        1.0  0.4523858535305624  0.2142490659921328  0.1957299356809572  1.0000
  H   H7        1.0  0.5564912486697072  0.43464553082468005  0.5645111987219493  1.0000
  H   H8        1.0  0.5573686144037454  0.5887290384326571  0.44118279104355956  1.0000
  C   C14       1.0  0.9902117385881186  0.1411166799553596  0.5565246331619222  1.0000
  C   C15       1.0  0.0018868195921348818  0.22437365771263942  0.4379151612333658  1.0000
  C   C16       1.0  0.02070720474378951  0.15877969400300354  0.323860922358284  1.0000
  C   C17       1.0  0.028302840796686546  0.008748766901180979  0.32622454230135256  1.0000
  C   C18       1.0  0.015578118566825777  0.923924475619036  0.44272040302133026  1.0000
  C   C19       1.0  0.9951893060233528  0.9879209252339282  0.5582833066448545  1.0000
  C   C20       1.0  0.04824021760563646  0.9413880843804777  0.20852537745672772  1.0000
  C   C21       1.0  0.06493347178378463  0.8849750481995885  0.10998591586262507  1.0000
  H   H9        1.0  0.003673806810857492  0.21751926716882355  0.8753944989740517  1.0000
  H   H10       1.0  0.9983633172253623  0.3412447021746708  0.4339865976768295  1.0000
  H   H11       1.0  0.030137620152463237  0.22537270080613597  0.23396448404870673  1.0000
  H   H12       1.0  0.019707881839324152  0.8072619597610708  0.44250296672191086  1.0000
  H   H13       1.0  0.0011089250222118254  0.6893675993304741  0.7731684322875227  1.0000
  H   H14       1.0  0.07958656606899184  0.8354545560626323  0.023488963223314837  1.0000
  C   C22       1.0  0.9926256604274319  0.5644462331472038  0.17608828910440066  1.0000
  C   C23       1.0  0.068253518539378  0.637206578910869  0.169266682456523  1.0000
  C   C24       1.0  0.10587809904308298  0.6753864173597983  0.04861736420291041  1.0000
  C   C25       1.0  0.06845030924858686  0.6373955601242988  0.9339655932983183  1.0000
  C   C26       1.0  0.992775420171912  0.5645913523183737  0.9387196422572136  1.0000
  C   C27       1.0  0.955217957045678  0.5288548843249083  0.06020920109764183  1.0000
  C   C28       1.0  0.1879165495118671  0.7494471498657758  0.04268133381212592  1.0000
  O   O1        1.0  0.24990701904793686  0.6433685410221452  0.04910621075079802  1.0000
  C   C29       1.0  0.3272666850500048  0.7115424795575933  0.04364732361497148  1.0000
  H   H15       1.0  0.9641084342609142  0.5350788618028512  0.5061943070157666  1.0000
  H   H16       1.0  0.09821305133263714  0.6644547703818834  0.25765110959274073  1.0000
  H   H17       1.0  0.09854482392537303  0.6647748027099298  0.8411736132633583  1.0000
  H   H18       1.0  0.8968943471674424  0.47272798367501623  0.06470790702567153  1.0000
  H   H19       1.0  0.8504667739307875  0.42580901620052003  0.7405285587450545  1.0000
  H   H20       1.0  0.19266558410226708  0.8197669357407598  0.1254502572387206  1.0000
  H   H21       1.0  0.19285553426399304  0.8197863886136231  0.9503336335804429  1.0000
  H   H22       1.0  0.3753059477502283  0.6269357710052237  0.04878027681103747  1.0000
  H   H23       1.0  0.3359473775101649  0.7783807544026428  0.1278148037764748  1.0000
  H   H24       1.0  0.33614776584525763  0.7784382207268947  0.9503011501572963  1.0000
  Zn  Zn1       1.0  0.9029333050775582  0.5657213422557948  0.5586455199406821  1.0000
  Zn  Zn2       1.0  0.08245991147814014  0.5633156726378699  0.5561618967820052  1.0000
  C   C30       1.0  0.9927115071213608  0.5588199814017167  0.794554062612748  1.0000
  C   C31       1.0  0.9926836805780084  0.5702188264929324  0.32025345821571016  1.0000
  C   C32       1.0  0.9942432233695053  0.8278559677215057  0.5527764623189497  1.0000
  C   C33       1.0  0.991151892900987  0.30118110871061887  0.5620311249883296  1.0000
  O   O2        1.0  0.06083252721399113  0.5712369321874755  0.3676940708257017  1.0000
  O   O3        1.0  0.06081919431341488  0.5559749403409604  0.7452280614396438  1.0000
  O   O4        1.0  0.06205515640304515  0.7732249142824277  0.5499909544051471  1.0000
  O   O5        1.0  0.05959650390560257  0.35398696936266566  0.5629310813680397  1.0000
  O   O6        1.0  0.9257966513864837  0.7750500463535048  0.5518763361953594  1.0000
  O   O7        1.0  0.9245606994621184  0.5578018046970672  0.7471133775917469  1.0000
  O   O8        1.0  0.9245740318152983  0.5730637460011576  0.3695778256900355  1.0000
  O   O9        1.0  0.9233380084620562  0.3558137728821957  0.5648149335652437  1.0000
