data_image0
_chemical_formula_structural       NC9NC5H8C6ClH5C6NCH7Zn2C4O8
_chemical_formula_sum              "N3 C31 H20 Cl1 Zn2 O8"
_cell_length_a       17.807436237873137
_cell_length_b       10.30297070629231
_cell_length_c       9.273390368590327
_cell_angle_alpha    86.16779528597041
_cell_angle_beta     89.39974432744097
_cell_angle_gamma    88.39001192287226

_space_group_name_H-M_alt    "P 1"
_space_group_IT_number       1

loop_
  _space_group_symop_operation_xyz
  'x, y, z'

loop_
  _atom_site_type_symbol
  _atom_site_label
  _atom_site_symmetry_multiplicity
  _atom_site_fract_x
  _atom_site_fract_y
  _atom_site_fract_z
  _atom_site_occupancy
  N   N1        1.0  0.707543658610398  0.37199684897744933  0.39868922614592006  1.0000
  C   C1        1.0  0.6469571478223819  0.3367013832440484  0.3864547557219285  1.0000
  C   C2        1.0  0.5715941874240557  0.29279771063071575  0.37123640291918014  1.0000
  C   C3        1.0  0.5535124371510837  0.22029103966011873  0.25470318887647836  1.0000
  C   C4        1.0  0.48033889889694187  0.17755161736721048  0.2398354472729498  1.0000
  C   C5        1.0  0.4241983954575403  0.2069411128203511  0.34146490434448906  1.0000
  C   C6        1.0  0.3464337795476337  0.16163586544447184  0.3257554323295295  1.0000
  C   C7        1.0  0.2842550293811916  0.24364116800041133  0.35454273472849707  1.0000
  C   C8        1.0  0.2109391850414753  0.2006989178263465  0.33969017644987415  1.0000
  C   C9        1.0  0.14771031126562165  0.2853985731640271  0.36888134333555755  1.0000
  N   N2        1.0  0.0968872851104433  0.3534912477986676  0.3923502352455037  1.0000
  C   C10       1.0  0.19921854838728603  0.07549319867765059  0.29602218222594767  1.0000
  C   C11       1.0  0.26053992950501764  0.9934739592134016  0.2672255688509737  1.0000
  C   C12       1.0  0.3337363605340264  0.0360196449680279  0.2818533478377565  1.0000
  C   C13       1.0  0.442971529978633  0.2799443187506261  0.45824142184913774  1.0000
  C   C14       1.0  0.5161979539118093  0.3224917555666298  0.47293642061306174  1.0000
  H   H1        1.0  0.5959139545794809  0.19705187130095214  0.17511566130651057  1.0000
  H   H2        1.0  0.46743397904764256  0.1230064338416823  0.14780948795194027  1.0000
  H   H3        1.0  0.2927498231101462  0.34138132713514735  0.3865907922853289  1.0000
  H   H4        1.0  0.14275450339915102  0.04135560105384294  0.28426386454547403  1.0000
  H   H5        1.0  0.2513469013255081  0.8965408959014156  0.23384528349310507  1.0000
  H   H6        1.0  0.3803789565412394  0.9700934973424483  0.2607132217044421  1.0000
  H   H7        1.0  0.4012867739574853  0.3026583500505564  0.5392655961171122  1.0000
  H   H8        1.0  0.5296313188469359  0.3782460781031223  0.5638063728958258  1.0000
  C   C15       1.0  0.9022190469007018  0.9814965056407752  0.39552591294821804  1.0000
  C   C16       1.0  0.9797923118980454  0.9749319592587022  0.42202389609568414  1.0000
  C   C17       1.0  0.01828209553490968  0.8547179616802224  0.4351713873430725  1.0000
  C   C18       1.0  0.9797923113038501  0.7398239899685481  0.4220238283211999  1.0000
  C   C19       1.0  0.902219054911508  0.743981447862041  0.3955259953238901  1.0000
  C   C20       1.0  0.8638105570552929  0.8653933910903909  0.3824061378104846  1.0000
  Cl  Cl1       1.0  0.11518958582157438  0.848020795196896  0.468273582214303  1.0000
  H   H9        1.0  0.872998556689667  0.31127236589048407  0.3855437798668147  1.0000
  H   H10       1.0  0.010645084649614223  0.06284634294996394  0.43256266423159206  1.0000
  H   H11       1.0  0.010645054948239535  0.6476451505428922  0.4325625611636521  1.0000
  H   H12       1.0  0.8039837009947354  0.8695278409208734  0.36197005264369153  1.0000
  H   H13       1.0  0.8729985530035537  0.4182444019928551  0.3855440520453553  1.0000
  C   C21       1.0  0.9022538796205533  0.3586887739960173  0.9722795889491788  1.0000
  C   C22       1.0  0.9712543492612289  0.3528295860419215  0.04475867348296192  1.0000
  C   C23       1.0  0.039051295651328026  0.35909635166421233  0.9682400789261939  1.0000
  C   C24       1.0  0.03957033272116717  0.371492146923762  0.8166036401984327  1.0000
  C   C25       1.0  0.9710277763137305  0.37514010885355964  0.7433074982947416  1.0000
  C   C26       1.0  0.9021842560284228  0.36678916570977793  0.8187722572526779  1.0000
  N   N3        1.0  0.10863704556483735  0.3791933942977655  0.7346908894364401  1.0000
  C   C27       1.0  0.18281303264719573  0.3758208116906769  0.8004714230687876  1.0000
  H   H14       1.0  0.7836748974491459  0.30196186527730595  0.2600501747355082  1.0000
  H   H15       1.0  0.09081346043314675  0.35544145325965365  0.028518340073645062  1.0000
  H   H16       1.0  0.7271027636662734  0.2742488496530619  0.726131683317834  1.0000
  H   H17       1.0  0.10619945007269772  0.3879134535615529  0.6218547429405268  1.0000
  H   H18       1.0  0.187688746571375  0.4588715700100351  0.8698605783017181  1.0000
  H   H19       1.0  0.19197695173802343  0.2825827441885116  0.8658761608330101  1.0000
  H   H20       1.0  0.22683990257360317  0.38354294620849  0.714864052190512  1.0000
  Zn  Zn1       1.0  0.8198998170542572  0.3666531478034277  0.39686826584040813  1.0000
  Zn  Zn2       1.0  0.984531107494243  0.35882447955744357  0.39418304454181424  1.0000
  C   C28       1.0  0.9021957245794843  0.36008604813248857  0.6587670520184346  1.0000
  C   C29       1.0  0.9022369977260015  0.36539313319093275  0.13228437050462816  1.0000
  C   C30       1.0  0.90221567187312  0.5998007557816046  0.38978255238974857  1.0000
  C   C31       1.0  0.9022169942488422  0.1256768691429202  0.4012689478911289  1.0000
  O   O1        1.0  0.9647080487465876  0.36466657464513896  0.1849644093674767  1.0000
  O   O2        1.0  0.9646760137281931  0.3548698452418991  0.6040485774243214  1.0000
  O   O3        1.0  0.9646912790807506  0.5484425576656895  0.3868417046014263  1.0000
  O   O4        1.0  0.9646927272254139  0.17109387314587485  0.4021711750394541  1.0000
  O   O5        1.0  0.8397381411425076  0.5543837568878773  0.3888801362515213  1.0000
  O   O6        1.0  0.8397228757928942  0.36081260353586403  0.6060869322253557  1.0000
  O   O7        1.0  0.8397549110038163  0.3706092711129134  0.1870010313124495  1.0000
  O   O8        1.0  0.8397395894706797  0.17703656136200374  0.40420790504409787  1.0000
