data_image0
_chemical_formula_structural       NC8NH4C7NH5C9H9Zn2C4O8
_chemical_formula_sum              "N3 C28 H18 Zn2 O8"
_cell_length_a       14.927258825633057
_cell_length_b       9.275154477615127
_cell_length_c       9.273585224739813
_cell_angle_alpha    86.3668502262391
_cell_angle_beta     90.102070233187
_cell_angle_gamma    89.43370909507247

_space_group_name_H-M_alt    "P 1"
_space_group_IT_number       1

loop_
  _space_group_symop_operation_xyz
  'x, y, z'

loop_
  _atom_site_type_symbol
  _atom_site_label
  _atom_site_symmetry_multiplicity
  _atom_site_fract_x
  _atom_site_fract_y
  _atom_site_fract_z
  _atom_site_occupancy
  N   N1        1.0  0.8322243368036031  0.5618447338128099  0.4163626476027562  1.0000
  C   C1        1.0  0.7546979126284301  0.5618447074641761  0.41636265714968834  1.0000
  C   C2        1.0  0.6582652709419713  0.561844707732468  0.41636271222780596  1.0000
  C   C3        1.0  0.6116610897125686  0.4726383050705505  0.3262774645485187  1.0000
  C   C4        1.0  0.5179497786780728  0.4726382149682413  0.3262774357291433  1.0000
  C   C5        1.0  0.4704492731160369  0.5618447598755212  0.41636262462368306  1.0000
  C   C6        1.0  0.5170534541729755  0.6510511717553722  0.5064477642784737  1.0000
  C   C7        1.0  0.6107648321990319  0.6510512618547766  0.5064477931037614  1.0000
  C   C8        1.0  0.3740166319140496  0.5618446617182546  0.4163625693010038  1.0000
  N   N2        1.0  0.2964902070819411  0.561844743013113  0.4163625812242357  1.0000
  H   H1        1.0  0.6477058954041596  0.40323049376844367  0.25618610402795294  1.0000
  H   H2        1.0  0.4826022397681342  0.40323047108395715  0.25618620116092833  1.0000
  H   H3        1.0  0.4810086484813845  0.720458983057479  0.5765391247990392  1.0000
  H   H4        1.0  0.6461123042898741  0.720458996524032  0.5765391356905603  1.0000
  C   C9        1.0  0.06695216790601277  0.13843852288561243  0.41469471199450814  1.0000
  C   C10       1.0  0.04222960160383549  0.22033017515141684  0.28761014753298  1.0000
  C   C11       1.0  0.010227404451923048  0.15307251554681334  0.167257442471183  1.0000
  C   C12       1.0  0.002421433063018564  0.0030058294456365396  0.17257188781136956  1.0000
  C   C13       1.0  0.027971257745886154  0.91987715605059  0.296759660741378  1.0000
  C   C14       1.0  0.061771052637237034  0.9852399614222132  0.41804301516725595  1.0000
  C   C15       1.0  0.9843114041106471  0.2385304632709324  0.038641177669744606  1.0000
  N   N3        1.0  0.9634821256278029  0.30722308094830203  0.9352666455293139  1.0000
  H   H5        1.0  0.08469220351299689  0.21869377652244504  0.768496191866002  1.0000
  H   H6        1.0  0.045883662632195225  0.3372462500179323  0.2833334528951963  1.0000
  H   H7        1.0  0.9773483952590526  0.9499421953505013  0.08007327525173014  1.0000
  H   H8        1.0  0.023267005450650077  0.8034082752974767  0.2966328135269747  1.0000
  H   H9        1.0  0.0775162321963676  0.6888712291096075  0.6551000701999935  1.0000
  C   C16       1.0  0.06391889558319641  0.5575513039953242  0.9931003646079265  1.0000
  C   C17       1.0  0.14406255935983256  0.5254384789808821  0.06893016073417679  1.0000
  C   C18       1.0  0.22533921181556482  0.5063027664826599  0.9965941214009275  1.0000
  C   C19       1.0  0.22573873258291632  0.5200905266820675  0.8445894125090381  1.0000
  C   C20       1.0  0.1465690360052445  0.5494924569807993  0.7677451780458244  1.0000
  C   C21       1.0  0.06480432416088733  0.5661271497998164  0.8396373141770495  1.0000
  C   C22       1.0  0.3085745612765216  0.4732377195814261  0.08797858497191857  1.0000
  C   C23       1.0  0.37922983731862403  0.37430890024130514  0.027349474965517203  1.0000
  C   C24       1.0  0.3968166738960659  0.5355229526330687  0.031890798218565664  1.0000
  H   H10       1.0  0.9161671337452075  0.538721869339754  0.27431013863825937  1.0000
  H   H11       1.0  0.14367842327512204  0.5184801497504687  0.1860721561661265  1.0000
  H   H12       1.0  0.2865783658210539  0.5070628054433798  0.7836035716810636  1.0000
  H   H13       1.0  0.9309177585679397  0.6685745182335496  0.5513722783323902  1.0000
  H   H14       1.0  0.3027435078788119  0.46393880116270036  0.2077036662117384  1.0000
  H   H15       1.0  0.36740760517168924  0.33720644197957234  0.9176249360120008  1.0000
  H   H16       1.0  0.4168222807227821  0.3068017527710649  0.1106038446001365  1.0000
  H   H17       1.0  0.3956374772827982  0.5961717209685874  0.9249114545463013  1.0000
  H   H18       1.0  0.444679340798277  0.562264448851604  0.11780402326054527  1.0000
  Zn  Zn1       1.0  0.9662014792896072  0.5618409496978529  0.41637094521128576  1.0000
  Zn  Zn2       1.0  0.1625131624918401  0.5618368103331657  0.4163660726664675  1.0000
  C   C25       1.0  0.06467010025716369  0.5587621762903976  0.6796009958558504  1.0000
  C   C26       1.0  0.06404667425878  0.5649174043690783  0.15313617063269414  1.0000
  C   C27       1.0  0.06273977108879426  0.8251182574746898  0.41166633074973324  1.0000
  C   C28       1.0  0.06597694711901991  0.298559591673885  0.4210709057365998  1.0000
  O   O1        1.0  0.1385888571246019  0.5673816738155323  0.20684377510263996  1.0000
  O   O2        1.0  0.1391239488198488  0.5562936732437382  0.6258892740172115  1.0000
  O   O3        1.0  0.13756418088596756  0.771379592536652  0.40953014221459694  1.0000
  O   O4        1.0  0.1401485578944588  0.3522957637434576  0.4232027988748446  1.0000
  O   O5        1.0  0.9885660168954278  0.7713819962904664  0.40953421899699594  1.0000
  O   O6        1.0  0.990125774145878  0.556297808511359  0.6258932807959099  1.0000
  O   O7        1.0  0.9895906810050782  0.5673857412831074  0.2068460487367873  1.0000
  O   O8        1.0  0.9911503819473989  0.35229982199309906  0.4232051805334902  1.0000
