data_image0
_chemical_formula_structural       NC14NH8C7NH3C6SCH7Zn2C4O8
_chemical_formula_sum              "N3 C32 H18 S1 Zn2 O8"
_cell_length_a       14.909852193252176
_cell_length_b       9.275154477615127
_cell_length_c       9.275274088470228
_cell_angle_alpha    86.32665131531041
_cell_angle_beta     91.31887160583503
_cell_angle_gamma    92.22301074390651

_space_group_name_H-M_alt    "P 1"
_space_group_IT_number       1

loop_
  _space_group_symop_operation_xyz
  'x, y, z'

loop_
  _atom_site_type_symbol
  _atom_site_label
  _atom_site_symmetry_multiplicity
  _atom_site_fract_x
  _atom_site_fract_y
  _atom_site_fract_z
  _atom_site_occupancy
  N   N1        1.0  0.8404210340747186  0.6264544312194427  0.4500508394336989  1.0000
  C   C1        1.0  0.7690586434963887  0.5864830005930426  0.48411031692547324  1.0000
  C   C2        1.0  0.6802887957061738  0.5367838701751579  0.526485705377105  1.0000
  C   C3        1.0  0.6144466976404801  0.6367661977314929  0.5472614372561679  1.0000
  C   C4        1.0  0.5277158828472184  0.5889188662776434  0.5893760867822384  1.0000
  C   C5        1.0  0.5073758729022408  0.43974845484120584  0.6073213173199092  1.0000
  C   C6        1.0  0.5731552259476572  0.3402047173188756  0.586456771162885  1.0000
  C   C7        1.0  0.6595169601767914  0.3884407515806876  0.5464182119291214  1.0000
  C   C8        1.0  0.4573259620728916  0.6937507365573017  0.609388844901823  1.0000
  C   C9        1.0  0.4695463268546342  0.8022336971881379  0.6984123041832544  1.0000
  C   C10       1.0  0.4058638529329356  0.9134114652173139  0.7245012006492961  1.0000
  C   C11       1.0  0.44232344639808074  0.9972938182436786  0.822065651382852  1.0000
  C   C12       1.0  0.5308532150068391  0.9452826374431164  0.8653092826296778  1.0000
  C   C13       1.0  0.5471540489673644  0.8305790427754709  0.7933542737379385  1.0000
  C   C14       1.0  0.3731018558878215  0.6759809179879079  0.5312245976906746  1.0000
  N   N2        1.0  0.3056508636491032  0.6616605762793712  0.4685841770465913  1.0000
  H   H1        1.0  0.6303921190317915  0.7515081965930548  0.5297518590239942  1.0000
  H   H2        1.0  0.44079281873194753  0.40055940089072195  0.6385401593126994  1.0000
  H   H3        1.0  0.5571409914949411  0.22546727578590908  0.6012938212579256  1.0000
  H   H4        1.0  0.7099203678000403  0.3102250710708965  0.5305382635166451  1.0000
  H   H5        1.0  0.34027598269661946  0.9267759663201909  0.6740628950025378  1.0000
  H   H6        1.0  0.4108828162077068  0.08906600820696788  0.8631566111371844  1.0000
  H   H7        1.0  0.5759264377907818  0.9914908223135944  0.9445147160789829  1.0000
  H   H8        1.0  0.6072660702883295  0.7689909387200521  0.8065313038181572  1.0000
  C   C15       1.0  0.07564304238038423  0.22084964040413357  0.4577536674968399  1.0000
  C   C16       1.0  0.05138825276219605  0.3009869569327992  0.3297195818922265  1.0000
  C   C17       1.0  0.019811219708909086  0.23141655499379699  0.20812477376862834  1.0000
  C   C18       1.0  0.011967332671360749  0.08075289203165137  0.21312604291740492  1.0000
  C   C19       1.0  0.037062930956421436  0.9994440317995995  0.3382972133643605  1.0000
  C   C20       1.0  0.07043749262635579  0.06725501276566015  0.46089415661564154  1.0000
  C   C21       1.0  0.9943667747360448  0.31503111809433726  0.0785117969865825  1.0000
  N   N3        1.0  0.9739165071182859  0.38224216822855395  0.9743361855739892  1.0000
  H   H9        1.0  0.0919747227729586  0.3021149015118805  0.8121592117827099  1.0000
  H   H10       1.0  0.9872200690823152  0.025875572683648373  0.11965374088226799  1.0000
  H   H11       1.0  0.0852470462440631  0.7718556379058709  0.6985099963020842  1.0000
  C   C22       1.0  0.07432557740686274  0.640131893241942  0.036162295187959215  1.0000
  C   C23       1.0  0.15046084125491732  0.6966447666828373  0.10874428126787938  1.0000
  C   C24       1.0  0.2215395356646721  0.7642620499089596  0.03175783406734501  1.0000
  C   C25       1.0  0.2176743230208915  0.7755948957711563  0.8810896905926717  1.0000
  C   C26       1.0  0.14346406105965182  0.7181362941164693  0.8070771638339838  1.0000
  C   C27       1.0  0.07175495667067722  0.6479727629735126  0.8824854813786751  1.0000
  S   S1        1.0  0.3175512703423755  0.8368998643828034  0.12652945024160592  1.0000
  C   C28       1.0  0.2703001524598272  0.013794938329643618  0.1370927658663652  1.0000
  H   H12       1.0  0.8573068804334874  0.5643831506579051  0.13598709796704325  1.0000
  H   H13       1.0  0.2725383436339459  0.8280561941406535  0.8209684245108179  1.0000
  H   H14       1.0  0.14315436157609351  0.7255830057020718  0.6900348961177349  1.0000
  H   H15       1.0  0.9267513873353773  0.5911747402825  0.5996130114405673  1.0000
  H   H16       1.0  0.25715795892151827  0.06318748324794043  0.026806334901043456  1.0000
  H   H17       1.0  0.20686856584988944  0.0035786395787140686  0.19790999935032594  1.0000
  H   H18       1.0  0.31892797250062466  0.08474899089643184  0.19429523860122755  1.0000
  Zn  Zn1       1.0  0.9746763186753159  0.6366103703591972  0.45540746664370896  1.0000
  Zn  Zn2       1.0  0.1713956226548301  0.651492908662729  0.46323930593158386  1.0000
  C   C29       1.0  0.07227416192282932  0.6407492231170533  0.7224908978895979  1.0000
  C   C30       1.0  0.07379991596296098  0.6473560381216585  0.19615610839095066  1.0000
  C   C31       1.0  0.0714342695512189  0.9072128108625256  0.45455801964810116  1.0000
  C   C32       1.0  0.07463975162360614  0.3808907145290097  0.4640890543618319  1.0000
  O   O1        1.0  0.14827748849758393  0.655422085542136  0.25282361252913743  1.0000
  O   O2        1.0  0.1471019972802908  0.6439775868612776  0.6717671597062738  1.0000
  O   O3        1.0  0.14642276264623  0.8591502416038221  0.45540943035015613  1.0000
  O   O4        1.0  0.14895665626944465  0.44024943502962666  0.46918123120546534  1.0000
  O   O5        1.0  0.9971152179300704  0.8478538389151191  0.44946553868963135  1.0000
  O   O6        1.0  0.997794442144466  0.6326829149425699  0.6658231976361682  1.0000
  O   O7        1.0  0.9989699389926573  0.6441273473560407  0.24687791776678703  1.0000
  O   O8        1.0  0.9996491064960882  0.4289546875363149  0.4632356444427088  1.0000
