data_image0
_chemical_formula_structural       NC8NC6H8C7OC3OC4H12C6NCOC6H11Zn2C4O8
_chemical_formula_sum              "N3 C45 H31 O11 Zn2"
_cell_length_a       17.457602349358154
_cell_length_b       10.299371110280156
_cell_length_c       10.299662537453274
_cell_angle_alpha    85.55769285269642
_cell_angle_beta     92.86302956752768
_cell_angle_gamma    91.70033728131911

_space_group_name_H-M_alt    "P 1"
_space_group_IT_number       1

loop_
  _space_group_symop_operation_xyz
  'x, y, z'

loop_
  _atom_site_type_symbol
  _atom_site_label
  _atom_site_symmetry_multiplicity
  _atom_site_fract_x
  _atom_site_fract_y
  _atom_site_fract_z
  _atom_site_occupancy
  N   N1        1.0  0.722812182437801  0.45335893544856676  0.6269695089996581  1.0000
  C   C1        1.0  0.6617294938107149  0.4074374282094242  0.6163386891607219  1.0000
  C   C2        1.0  0.585740045578552  0.35031678402592475  0.6031234931861658  1.0000
  C   C3        1.0  0.5272064875867565  0.39045068000643984  0.6780349064525197  1.0000
  C   C4        1.0  0.45265532416885906  0.3354480804508755  0.6654348458214563  1.0000
  C   C5        1.0  0.3905305614917666  0.3778234738152826  0.7447688317934329  1.0000
  C   C6        1.0  0.3159941252159928  0.39631299699265665  0.689010904547791  1.0000
  C   C7        1.0  0.2574605244943811  0.43626292567835345  0.7640302122631937  1.0000
  C   C8        1.0  0.1814863218920583  0.4553591402489819  0.7060570040456002  1.0000
  N   N2        1.0  0.12041597862128471  0.4707061169695889  0.6594466936026611  1.0000
  C   C9        1.0  0.27297115987375575  0.45796628264855666  0.8953160484211491  1.0000
  C   C10       1.0  0.3467228911878735  0.4398656026052898  0.9514617040626631  1.0000
  C   C11       1.0  0.40524484800142635  0.40009555695617793  0.8769001802246784  1.0000
  C   C12       1.0  0.437926471211816  0.23963470096762984  0.5764902191868408  1.0000
  C   C13       1.0  0.49644829343346675  0.19977933606121856  0.5019789035683571  1.0000
  C   C14       1.0  0.570214630254622  0.2548941047705904  0.5151289551956046  1.0000
  H   H1        1.0  0.5395514927548025  0.46562039030912367  0.7446907345744285  1.0000
  H   H2        1.0  0.3036612258967309  0.38138105899514163  0.5869807024546707  1.0000
  H   H3        1.0  0.2281062254829276  0.488827084550318  0.954162455912764  1.0000
  H   H4        1.0  0.3585423423520698  0.45635535150089096  0.05311915166965375  1.0000
  H   H5        1.0  0.46172204377704945  0.38508628337267314  0.9230021078815718  1.0000
  H   H6        1.0  0.3814371455524969  0.19430287921175668  0.5658234748812583  1.0000
  H   H7        1.0  0.4846174153957541  0.12572654580734843  0.4341251093631107  1.0000
  H   H8        1.0  0.6150794198556769  0.22316340686661754  0.45679339257875595  1.0000
  C   C15       1.0  0.9215660387598864  0.0806590585362239  0.6430893734512004  1.0000
  C   C16       1.0  0.9127453582104774  0.08961443913441379  0.5063832309229868  1.0000
  C   C17       1.0  0.9074298152547987  0.9769064904594947  0.43752983641869037  1.0000
  C   C18       1.0  0.9127833960359858  0.8543480970893056  0.5066974251565692  1.0000
  C   C19       1.0  0.9216694589268407  0.8433962981355093  0.6433386742638048  1.0000
  C   C20       1.0  0.9258084908837492  0.9571381946515823  0.7107652603505819  1.0000
  C   C21       1.0  0.8989159081953901  0.9862696853882083  0.2930868054411637  1.0000
  O   O1        1.0  0.930374124105535  0.9026283228009587  0.23163318632624819  1.0000
  C   C22       1.0  0.8547057036800313  0.09043760010435098  0.21836449441114025  1.0000
  C   C23       1.0  0.8761679501770129  0.1365834834203934  0.092974516826545  1.0000
  C   C24       1.0  0.8346802774556736  0.23381368346392395  0.02020463406208362  1.0000
  O   O2        1.0  0.8591922831978556  0.2767395760787883  0.8961084824867812  1.0000
  C   C25       1.0  0.8226333680577562  0.3746613269827124  0.81168695434758  1.0000
  C   C26       1.0  0.7703146833281  0.2848415023971347  0.07343542831905214  1.0000
  C   C27       1.0  0.7480649912944626  0.23837201553860576  0.19724402056108256  1.0000
  C   C28       1.0  0.7896889173717335  0.1414293535598241  0.2692728522068282  1.0000
  H   H9        1.0  0.9393823694294631  0.271149938283691  0.9009386372693605  1.0000
  H   H10       1.0  0.9108530693266498  0.1844869657611814  0.45319873644488046  1.0000
  H   H11       1.0  0.909263334257906  0.7673547025410311  0.4536872400140055  1.0000
  H   H12       1.0  0.9326090830729227  0.9494304727079719  0.8161557198023781  1.0000
  H   H13       1.0  0.9257212540514024  0.5117697035495861  0.6957567073442623  1.0000
  H   H14       1.0  0.9257787577228899  0.09786960263086852  0.05165381756433485  1.0000
  H   H15       1.0  0.8539428571801494  0.38915506200672545  0.7203731250000631  1.0000
  H   H16       1.0  0.8237571061351017  0.4681487378725504  0.8587979906319183  1.0000
  H   H17       1.0  0.7625117072950062  0.34381263354749375  0.7870117823825181  1.0000
  H   H18       1.0  0.736997258398105  0.35990693958326037  0.019825313702417136  1.0000
  H   H19       1.0  0.6981643961693242  0.27723513366162544  0.23731931225579905  1.0000
  H   H20       1.0  0.7705369331828101  0.1054079752431518  0.3640875355620268  1.0000
  C   C29       1.0  0.921670576461738  0.4621705054025558  0.26184239204250925  1.0000
  C   C30       1.0  0.9999918117237755  0.4979623143021333  0.2644360860741082  1.0000
  C   C31       1.0  0.03967187271258222  0.5141186654852976  0.14907713379422805  1.0000
  C   C32       1.0  0.99985752293164  0.49764638073409767  0.02928172258257456  1.0000
  C   C33       1.0  0.9215649361531257  0.4618848261724691  0.024585630679439856  1.0000
  C   C34       1.0  0.8829789342243597  0.4439071090106681  0.14147572142647902  1.0000
  N   N3        1.0  0.11956742638690177  0.5526901818864507  0.15513068665003948  1.0000
  C   C35       1.0  0.17386028870532824  0.5152087225413977  0.0653398651212902  1.0000
  O   O3        1.0  0.15985393994299643  0.4160389868101191  0.002613157380650714  1.0000
  C   C36       1.0  0.24752962033689238  0.5887518815745161  0.04902911410368894  1.0000
  C   C37       1.0  0.2568026798788781  0.7172272808459746  0.08618081015267909  1.0000
  C   C38       1.0  0.3264117922105769  0.7858201040456451  0.06969674835650053  1.0000
  C   C39       1.0  0.38730583278570685  0.7274495743894143  0.01567660870209719  1.0000
  C   C40       1.0  0.37865551282011145  0.6004477344741856  0.9775702682204576  1.0000
  C   C41       1.0  0.30917714839589744  0.5314035815227356  0.9937357860248213  1.0000
  H   H21       1.0  0.7737538793655175  0.3958536232871428  0.46410618076789545  1.0000
  H   H22       1.0  0.03073192054355566  0.5125227127303251  0.35637155764669015  1.0000
  H   H23       1.0  0.02957505557566243  0.5149069279877712  0.9396009582418001  1.0000
  H   H24       1.0  0.8226045124095929  0.41629881227447396  0.138612356050007  1.0000
  H   H25       1.0  0.8912844285669044  0.44983662427565285  0.6951852891669006  1.0000
  H   H26       1.0  0.14051189599709146  0.6008080102335362  0.235778974497324  1.0000
  H   H27       1.0  0.21019319520229596  0.7657291990856372  0.12616345040186072  1.0000
  H   H28       1.0  0.3330249792291693  0.8845886291846088  0.09838387857536324  1.0000
  H   H29       1.0  0.4411074689390709  0.7807752645700476  0.002969829974813539  1.0000
  H   H30       1.0  0.4258325494385644  0.5553879041859917  0.9354380852330428  1.0000
  H   H31       1.0  0.3038786296119113  0.4329150364445864  0.9637810738046735  1.0000
  Zn  Zn1       1.0  0.837552047822951  0.45836147176209074  0.6363492203137966  1.0000
  Zn  Zn2       1.0  0.005676096069618059  0.4656929287230345  0.6500776114114486  1.0000
  C   C42       1.0  0.9215824717388218  0.4567650198352402  0.8804090003123405  1.0000
  C   C43       1.0  0.9216475082676354  0.4672910993011656  0.4060181093294142  1.0000
  C   C44       1.0  0.9216466718027655  0.6992244806557049  0.6381160049483661  1.0000
  C   C45       1.0  0.9215832506135644  0.22483007563128465  0.6483111687380168  1.0000
  O   O4        1.0  0.9854419657265598  0.4717862012881062  0.4596146481360561  1.0000
  O   O5        1.0  0.9853902766924029  0.4578333444487522  0.8372316185265771  1.0000
  O   O6        1.0  0.9854412587847122  0.6536223873678546  0.6415782407160375  1.0000
  O   O7        1.0  0.9853909262796504  0.2759971651940798  0.6552679238897032  1.0000
  O   O8        1.0  0.857837160240433  0.6480572327905958  0.6311589031438853  1.0000
  O   O9        1.0  0.8577861783657659  0.4522697502204596  0.82681221221814  1.0000
  O   O10       1.0  0.8578378676611161  0.46622256239030246  0.44919368040522256  1.0000
  O   O11       1.0  0.8577868281963213  0.27043351697075  0.644847053524106  1.0000
