data_image0
_chemical_formula_structural       NC9NC5H8C12NCOCH13C11NCOCH13Zn2C4O8
_chemical_formula_sum              "N4 C45 H34 O10 Zn2"
_cell_length_a       17.807436237873137
_cell_length_b       10.299155265289647
_cell_length_c       10.299158637457992
_cell_angle_alpha    85.56442242627145
_cell_angle_beta     89.37443015321587
_cell_angle_gamma    88.36808077728017

_space_group_name_H-M_alt    "P 1"
_space_group_IT_number       1

loop_
  _space_group_symop_operation_xyz
  'x, y, z'

loop_
  _atom_site_type_symbol
  _atom_site_label
  _atom_site_symmetry_multiplicity
  _atom_site_fract_x
  _atom_site_fract_y
  _atom_site_fract_z
  _atom_site_occupancy
  N   N1        1.0  0.7073732067708594  0.38734596246214137  0.5567016691433153  1.0000
  C   C1        1.0  0.6467954680747678  0.35214927971366805  0.5456878921201032  1.0000
  C   C2        1.0  0.571443419194356  0.30836848242982073  0.5319879493504733  1.0000
  C   C3        1.0  0.5533871941761088  0.2369092134821169  0.42700445188106384  1.0000
  C   C4        1.0  0.4802242824331402  0.1942898973284799  0.413620093275374  1.0000
  C   C5        1.0  0.424068966339981  0.2227522770893402  0.505186890562765  1.0000
  C   C6        1.0  0.3463156107201931  0.17757387657963905  0.4910448254853858  1.0000
  C   C7        1.0  0.2841164498132857  0.2593463245061147  0.5169601831572095  1.0000
  C   C8        1.0  0.210811275374569  0.2165239582705969  0.5035895653339413  1.0000
  C   C9        1.0  0.147561364747607  0.30098811573743345  0.5298680431948906  1.0000
  N   N2        1.0  0.0967214263173726  0.36889145517128025  0.5509952146076833  1.0000
  C   C10       1.0  0.1991217784868635  0.09167113335698995  0.4642783152559356  1.0000
  C   C11       1.0  0.2604635741767021  0.009884828920352353  0.43835457181742093  1.0000
  C   C12       1.0  0.333649441033863  0.05231254737758939  0.4515227637657595  1.0000
  C   C13       1.0  0.44281644635554257  0.29470603358086395  0.610389476175514  1.0000
  C   C14       1.0  0.5160323002120429  0.33713488274275916  0.6236182374448076  1.0000
  H   H1        1.0  0.5958003608687212  0.214395992707036  0.35529720736110426  1.0000
  H   H2        1.0  0.46733892272489913  0.14057294007714735  0.3307141172779857  1.0000
  H   H3        1.0  0.2925871022723681  0.35682985684009255  0.5458090975002157  1.0000
  H   H4        1.0  0.1426662116801333  0.057628387033824335  0.4536932461946431  1.0000
  H   H5        1.0  0.2512946190389569  0.9132210272331798  0.4083049879467806  1.0000
  H   H6        1.0  0.3803082813094471  0.9865550937875978  0.43249334139147116  1.0000
  H   H7        1.0  0.40112003867341045  0.3166806315912212  0.683391396390229  1.0000
  H   H8        1.0  0.5294459338303137  0.3920721480476912  0.7054822134683878  1.0000
  C   C15       1.0  0.9021347926177218  0.9967171321012785  0.5539658879550073  1.0000
  C   C16       1.0  0.8893264064827718  0.0069882083697157035  0.4192276367628922  1.0000
  C   C17       1.0  0.8827595463463941  0.8950615933871707  0.35079584654024853  1.0000
  C   C18       1.0  0.8891468308441235  0.7717368680168138  0.4189224820677049  1.0000
  C   C19       1.0  0.9019670413424797  0.7595100193173278  0.553742151000775  1.0000
  C   C20       1.0  0.908385438581872  0.8725207487782718  0.6204337987133302  1.0000
  C   C21       1.0  0.8692107478213411  0.9069007772251495  0.20825903274368282  1.0000
  C   C22       1.0  0.9073261449357448  0.9991832833388536  0.12628232867327216  1.0000
  C   C23       1.0  0.894582014576748  0.010193565034634752  0.9921455981990768  1.0000
  C   C24       1.0  0.8439348327433028  0.928236911541771  0.9371370126748729  1.0000
  C   C25       1.0  0.8049017730750465  0.8378141684782231  0.019059006450178773  1.0000
  C   C26       1.0  0.8176732728597657  0.8265465601005421  0.15315800010556346  1.0000
  N   N3        1.0  0.828773632988536  0.9391596981552655  0.799797360467387  1.0000
  C   C27       1.0  0.8836474096760812  0.9734689869912447  0.7007748110398277  1.0000
  O   O1        1.0  0.9525631131293214  0.972744266165935  0.7276233390989781  1.0000
  C   C28       1.0  0.8597059394793911  0.0010134248970290482  0.5625850068907852  1.0000
  H   H9        1.0  0.9070847662541544  0.3202415168378334  0.6057859466013003  1.0000
  H   H10       1.0  0.8833920638291797  0.10230070709232696  0.36750467208866744  1.0000
  H   H11       1.0  0.8851152337930989  0.6851147818377009  0.36635281428094735  1.0000
  H   H12       1.0  0.9182673436599261  0.8638834679097551  0.7243597450377424  1.0000
  H   H13       1.0  0.9266144009167444  0.5291278060904508  0.8080698110587534  1.0000
  H   H14       1.0  0.9474354212338666  0.06234127144845769  0.16578702785840038  1.0000
  H   H15       1.0  0.9234141945295201  0.0842666432745791  0.932142242570424  1.0000
  H   H16       1.0  0.7647205589967964  0.7753634081796072  0.9786883206146215  1.0000
  H   H17       1.0  0.7864268946446209  0.7562044822293125  0.21402969128495908  1.0000
  H   H18       1.0  0.7758649330140732  0.9127905846428614  0.7694991827680018  1.0000
  H   H19       1.0  0.8054760082910775  0.05702831248382821  0.5589261523188127  1.0000
  H   H20       1.0  0.8527623875586914  0.9077207919690434  0.5174624414201063  1.0000
  H   H21       1.0  0.9024844959605554  0.0590622244310075  0.5065624183068533  1.0000
  C   C29       1.0  0.9021213693438052  0.3779722407794413  0.17247994344569495  1.0000
  C   C30       1.0  0.9038368401786654  0.5146044148939786  0.16110071868765008  1.0000
  C   C31       1.0  0.9046476127797778  0.5840214815850824  0.03817448516452959  1.0000
  C   C32       1.0  0.9036929436431674  0.5149711320291473  0.9257912423811154  1.0000
  C   C33       1.0  0.9019804403937651  0.378254902091279  0.9352281423760974  1.0000
  C   C34       1.0  0.9012084826774663  0.3105959361721369  0.05895993111821763  1.0000
  C   C35       1.0  0.9064632707361755  0.7285615130716463  0.027110187063837943  1.0000
  C   C36       1.0  0.9525594600757082  0.794215604211574  0.10898185328104538  1.0000
  C   C37       1.0  0.9542742126529191  0.9302351066860015  0.0984388182372382  1.0000
  C   C38       1.0  0.9104032049091588  0.0033051991913159978  0.004911199563973674  1.0000
  C   C39       1.0  0.8617283408212493  0.802060880618987  0.9351172076834433  1.0000
  N   N4        1.0  0.9100854988177884  0.14337670636965957  0.9936389481124906  1.0000
  C   C40       1.0  0.9744348813830896  0.21932044613363105  0.015903965679065376  1.0000
  O   O2        1.0  0.03921954037726061  0.16683339355456228  0.02348524729789414  1.0000
  C   C41       1.0  0.9655907135055722  0.36356555133532836  0.020593501063901783  1.0000
  H   H22       1.0  0.9014850633500683  0.32541468465498097  0.5043323089533764  1.0000
  H   H23       1.0  0.9034968090971253  0.5674417294669192  0.24804089472004565  1.0000
  H   H24       1.0  0.9053100165506008  0.5679120529050297  0.8307802127556054  1.0000
  H   H25       1.0  0.8998878717271593  0.20520822618400736  0.0670220581990355  1.0000
  H   H26       1.0  0.8992042700802558  0.12017317358062417  0.7457409010991767  1.0000
  H   H27       1.0  0.9877327684375041  0.7403174969426585  0.18067436957176253  1.0000
  H   H28       1.0  0.9889305803548792  0.9779357199542398  0.16494776866694316  1.0000
  H   H29       1.0  0.8282601459127676  0.9928261084719845  0.8537118238504879  1.0000
  H   H30       1.0  0.8246107281230839  0.7544301429285925  0.8723285858082841  1.0000
  H   H31       1.0  0.8613752867178768  0.19314403915194764  0.9593920545869108  1.0000
  H   H32       1.0  0.9127595789918692  0.38778596725735687  0.07277917391893385  1.0000
  H   H33       1.0  0.9635605794609984  0.410332607931045  0.9198906212009829  1.0000
  H   H34       1.0  0.013511502702140188  0.402064872498729  0.07253382988106849  1.0000
  Zn  Zn1       1.0  0.8197306907290881  0.38201692749902677  0.5550624215411173  1.0000
  Zn  Zn2       1.0  0.9843639245178871  0.37420990701437623  0.5526451420716516  1.0000
  C   C42       1.0  0.9020065387610956  0.37302741312260207  0.7910539172764317  1.0000
  C   C43       1.0  0.9020898738916753  0.38320097494485583  0.31665374692726433  1.0000
  C   C44       1.0  0.9019958183264567  0.6153241653294859  0.5486092699572236  1.0000
  C   C45       1.0  0.9021005384789246  0.14090266499205484  0.5590984647685522  1.0000
  O   O3        1.0  0.9645567592060569  0.38198739608424065  0.36412244912059055  1.0000
  O   O4        1.0  0.9644924688232737  0.3683146641329904  0.741750182334088  1.0000
  O   O5        1.0  0.9644829694612481  0.5639723962400278  0.5459744262580701  1.0000
  O   O6        1.0  0.96456620240586  0.18632967589614124  0.5598981086427495  1.0000
  O   O7        1.0  0.8395283566598734  0.5698971612828256  0.5478094557880862  1.0000
  O   O8        1.0  0.8395378556880467  0.37424098958726915  0.7435851421600914  1.0000
  O   O9        1.0  0.8396021464192502  0.38791367569774177  0.36595584753728505  1.0000
  O   O10       1.0  0.8396115896000337  0.1922559462562683  0.5617316044313703  1.0000
