data_image0
_chemical_formula_structural       NC11NC3H8C12SCH12C12IH8Zn2C4O8
_chemical_formula_sum              "N2 C43 H28 S1 I1 Zn2 O8"
_cell_length_a       17.807433833752565
_cell_length_b       10.299776766347529
_cell_length_c       10.299773350644651
_cell_angle_alpha    85.54589617011163
_cell_angle_beta     88.53399239926371
_cell_angle_gamma    90.66624570658541

_space_group_name_H-M_alt    "P 1"
_space_group_IT_number       1

loop_
  _space_group_symop_operation_xyz
  'x, y, z'

loop_
  _atom_site_type_symbol
  _atom_site_label
  _atom_site_symmetry_multiplicity
  _atom_site_fract_x
  _atom_site_fract_y
  _atom_site_fract_z
  _atom_site_occupancy
  N   N1        1.0  0.7070062681046696  0.438859712415806  0.534728957061958  1.0000
  C   C1        1.0  0.6561995851594438  0.40411505999808267  0.6012891874592716  1.0000
  C   C2        1.0  0.5929909446095774  0.36089557717683207  0.6840816199918287  1.0000
  C   C3        1.0  0.6047415613009189  0.29731230437212397  0.8067961517070248  1.0000
  C   C4        1.0  0.5434397844125606  0.25577320336647985  0.8873047480497964  1.0000
  C   C5        1.0  0.4702331624535003  0.2775039336674671  0.8457395887964198  1.0000
  C   C6        1.0  0.4575056798781689  0.34124188330767663  0.7225648711478005  1.0000
  C   C7        1.0  0.37973032685777425  0.3643034838660136  0.6782191448950896  1.0000
  C   C8        1.0  0.36093752760843845  0.34746758207105954  0.5486394321334453  1.0000
  C   C9        1.0  0.2877009661109172  0.3691595973083135  0.5070302002164822  1.0000
  C   C10       1.0  0.23231399280089368  0.40800626449248706  0.5941804286231993  1.0000
  C   C11       1.0  0.1569404580184021  0.4303571120286931  0.5512099437443896  1.0000
  N   N2        1.0  0.09634551010147148  0.44832553298113786  0.5166648012838062  1.0000
  C   C12       1.0  0.2504151388823421  0.42505288732808577  0.7232290215353834  1.0000
  C   C13       1.0  0.3235989694828439  0.40332587167238976  0.7650936786712257  1.0000
  C   C14       1.0  0.5196647710629667  0.38277641489629577  0.6420726902740219  1.0000
  H   H1        1.0  0.6612137612305402  0.2798888550703882  0.8401606258797085  1.0000
  H   H2        1.0  0.5526560804895954  0.20629545261829277  0.9820378619714308  1.0000
  H   H3        1.0  0.4236063535886425  0.24293087414225445  0.9091765748242688  1.0000
  H   H4        1.0  0.40261519892249575  0.3158454369157801  0.4799223278363794  1.0000
  H   H5        1.0  0.2742525243865034  0.3553069423047967  0.40699614513901095  1.0000
  H   H6        1.0  0.20802086188200952  0.4554521715652198  0.7914313122034241  1.0000
  H   H7        1.0  0.33651867470277225  0.418723958051576  0.864945045104512  1.0000
  H   H8        1.0  0.5111467220835381  0.43361642779155146  0.5475739462011531  1.0000
  C   C15       1.0  0.9017503136248525  0.062229293558665015  0.525691807893828  1.0000
  C   C16       1.0  0.9062775070928939  0.05073884678961459  0.6619949467880419  1.0000
  C   C17       1.0  0.9084991425884965  0.9277761649148708  0.7310695466207229  1.0000
  C   C18       1.0  0.9061338577267375  0.8154475736152279  0.6620168019499604  1.0000
  C   C19       1.0  0.901608670612481  0.8249461218658197  0.525712820588571  1.0000
  C   C20       1.0  0.8994418067934576  0.9487762188307458  0.4583133347650501  1.0000
  C   C21       1.0  0.9132801234031196  0.9166842735776809  0.8752632724887542  1.0000
  C   C22       1.0  0.8702912170206643  0.8221576608337416  0.9513001382494362  1.0000
  C   C23       1.0  0.874813241676816  0.8119538983930333  0.0869989310428042  1.0000
  C   C24       1.0  0.9221370336594717  0.8959931177328115  0.148476203729205  1.0000
  C   C25       1.0  0.9653053479500415  0.9899499158270075  0.0738040716848547  1.0000
  C   C26       1.0  0.9608934814519164  0.0005062482095727833  0.9380897529253704  1.0000
  S   S1        1.0  0.9280222576535223  0.8824417631624142  0.3225925807572998  1.0000
  C   C27       1.0  0.8525326100308288  0.9966626988664413  0.3456236934616077  1.0000
  H   H9        1.0  0.9000548030336367  0.39406187590427605  0.4737527533697105  1.0000
  H   H10       1.0  0.907050366146292  0.13757368529679329  0.7149171454670304  1.0000
  H   H11       1.0  0.9088655254421488  0.7204852837160035  0.7146519822717574  1.0000
  H   H12       1.0  0.8959497831722868  0.9568721341450309  0.35316123486475476  1.0000
  H   H13       1.0  0.8998468628567698  0.5011108168821166  0.4737815077990326  1.0000
  H   H14       1.0  0.8324688277483188  0.7572873972699871  0.9059411024262736  1.0000
  H   H15       1.0  0.8412305234473929  0.7390593292118486  0.14427827929354797  1.0000
  H   H16       1.0  0.002328328434801907  0.054856168619688  0.12078912402815765  1.0000
  H   H17       1.0  0.9954245062265255  0.07305452154537684  0.8821794414102899  1.0000
  H   H18       1.0  0.8675671684997236  0.09337179708398313  0.296048729410309  1.0000
  H   H19       1.0  0.8438373768253836  0.0071008259315741284  0.45130585854037186  1.0000
  H   H20       1.0  0.7996652694295301  0.9598568050787479  0.3059547136621673  1.0000
  C   C28       1.0  0.9016436441773796  0.4436929161829881  0.14433477258386707  1.0000
  C   C29       1.0  0.9697314615611115  0.5143511394045788  0.13483978656483786  1.0000
  C   C30       1.0  0.0042682344732283255  0.5500472664537521  0.012896887698468086  1.0000
  C   C31       1.0  0.9698037655411983  0.5141387428686645  0.8995668144543693  1.0000
  C   C32       1.0  0.9017153186225744  0.4434825092682091  0.9070698715180474  1.0000
  C   C33       1.0  0.8680168163084072  0.4086541917921276  0.0299043319398018  1.0000
  C   C34       1.0  0.07629917049083335  0.6247954439015766  0.0039060160574353425  1.0000
  C   C35       1.0  0.08809779571825538  0.7281004006763736  0.08317116340152131  1.0000
  C   C36       1.0  0.15593265100442433  0.7983412081552549  0.0745052939094768  1.0000
  C   C37       1.0  0.21272280356783146  0.766362634689588  0.9868804174129185  1.0000
  C   C38       1.0  0.20164868453442586  0.6639614813383958  0.907724412441577  1.0000
  C   C39       1.0  0.13389008304954553  0.5934965580573284  0.9159807980626447  1.0000
  I   I1        1.0  0.3149932206326098  0.8724868858738412  0.9741190851770262  1.0000
  H   H21       1.0  0.9965908769978893  0.5402509002222851  0.22257093197201194  1.0000
  H   H22       1.0  0.9956710475495867  0.5429550789268183  0.8052543797937957  1.0000
  H   H23       1.0  0.8154897430460891  0.3541457150978364  0.03646094153040246  1.0000
  H   H24       1.0  0.8757822105586467  0.416523811243372  0.5824775817429075  1.0000
  H   H25       1.0  0.04453035119013382  0.7556188019185828  0.15058380637337998  1.0000
  H   H26       1.0  0.16423221509692776  0.8778191693777158  0.1357075819672795  1.0000
  H   H27       1.0  0.24558467747179466  0.6386882471669517  0.8400035714736508  1.0000
  H   H28       1.0  0.12689614097431723  0.5135094583831459  0.8548788326962801  1.0000
  Zn  Zn1       1.0  0.8193611643018686  0.4415878671046365  0.5295235163076917  1.0000
  Zn  Zn2       1.0  0.9839906021108772  0.44558675593346114  0.5218808277209519  1.0000
  C   C40       1.0  0.9017010518123334  0.43834863343109165  0.7628965110585268  1.0000
  C   C41       1.0  0.9016525120563773  0.4488276718355106  0.2885078770232812  1.0000
  C   C42       1.0  0.9016310709065973  0.6807777450104765  0.5205338581164993  1.0000
  C   C43       1.0  0.9017224370819068  0.2063969985924316  0.5308706017686604  1.0000
  O   O1        1.0  0.9641315029249157  0.45206283454960405  0.33399332726632935  1.0000
  O   O2        1.0  0.9641719951217856  0.43814755520486  0.711610063146277  1.0000
  O   O3        1.0  0.964114642575716  0.6339121079098633  0.5159005452755876  1.0000
  O   O4        1.0  0.9641887992832345  0.25629828979700053  0.529702750370892  1.0000
  O   O5        1.0  0.8391629109495627  0.6308763318778882  0.521701596258995  1.0000
  O   O6        1.0  0.8392202631958905  0.43511333947337105  0.7174110449275757  1.0000
  O   O7        1.0  0.8391797709106738  0.4490285739947472  0.3397927476490421  1.0000
  O   O8        1.0  0.839237067276795  0.253264019926535  0.5355022681209753  1.0000
