data_image0
_chemical_formula_structural       NC12NC2H8C12NCOCH13C12ClH9Zn2C4O8
_chemical_formula_sum              "N3 C44 H30 O9 Cl1 Zn2"
_cell_length_a       17.80743265337812
_cell_length_b       10.299155265289647
_cell_length_c       10.299771906710086
_cell_angle_alpha    85.5278422735101
_cell_angle_beta     91.54320236892109
_cell_angle_gamma    89.4139958816946

_space_group_name_H-M_alt    "P 1"
_space_group_IT_number       1

loop_
  _space_group_symop_operation_xyz
  'x, y, z'

loop_
  _atom_site_type_symbol
  _atom_site_label
  _atom_site_symmetry_multiplicity
  _atom_site_fract_x
  _atom_site_fract_y
  _atom_site_fract_z
  _atom_site_occupancy
  N   N1        1.0  0.7069708827527659  0.4071503425943031  0.6009468559303839  1.0000
  C   C1        1.0  0.6561376159055098  0.43672889249454544  0.5322404318438865  1.0000
  C   C2        1.0  0.592896018510165  0.4735224606062394  0.4467782888022511  1.0000
  C   C3        1.0  0.6045980028527406  0.5275795093119757  0.32014450032852126  1.0000
  C   C4        1.0  0.5432643327324999  0.5628687606789544  0.23707874159881762  1.0000
  C   C5        1.0  0.47007425046389023  0.5443646158966997  0.27998680117036523  1.0000
  C   C6        1.0  0.457395566335532  0.49018863631165704  0.4070887611674183  1.0000
  C   C7        1.0  0.5195865501636341  0.4549026432817179  0.4901380074509367  1.0000
  C   C8        1.0  0.379637812247059  0.47056955184955235  0.45285740114291945  1.0000
  C   C9        1.0  0.3608589962245105  0.4977260763260767  0.5798928589972316  1.0000
  C   C10       1.0  0.2876389629267247  0.47926349797121165  0.6228414693640394  1.0000
  C   C11       1.0  0.2322549197653768  0.43338989202325906  0.539592653925913  1.0000
  C   C12       1.0  0.1568985498798177  0.41437409111055024  0.5839423340155514  1.0000
  N   N2        1.0  0.096317364946265  0.3990866660968747  0.6195964258541353  1.0000
  C   C13       1.0  0.25034233676385165  0.4060643048934825  0.41310020798022107  1.0000
  C   C14       1.0  0.32350948499669463  0.42454173425468855  0.36989570889942636  1.0000
  H   H1        1.0  0.661056778111665  0.5424131219530672  0.2857036570839959  1.0000
  H   H2        1.0  0.5524428127581508  0.6049937795724769  0.1392887436918797  1.0000
  H   H3        1.0  0.42342144257766556  0.5740189993997105  0.21438827133895533  1.0000
  H   H4        1.0  0.5111067529061687  0.411392235914222  0.5878039524643859  1.0000
  H   H5        1.0  0.4025338677729296  0.5348918532548113  0.6454548291682469  1.0000
  H   H6        1.0  0.2742009110320474  0.5010861780054239  0.7208432366955855  1.0000
  H   H7        1.0  0.2079503433026037  0.37016580794637505  0.34795083018332007  1.0000
  H   H8        1.0  0.3364195208806896  0.4011833075127169  0.2721977080957947  1.0000
  C   C15       1.0  0.9017316404609633  0.021719182039419804  0.6103945183027875  1.0000
  C   C16       1.0  0.8888857223208849  0.031735642075188655  0.4748545567521747  1.0000
  C   C17       1.0  0.8822998001923509  0.9196780661639291  0.40601173186717765  1.0000
  C   C18       1.0  0.8887060617309018  0.796479708195068  0.4745381675019207  1.0000
  C   C19       1.0  0.9015638269123163  0.784507738556665  0.6101602867606357  1.0000
  C   C20       1.0  0.9080008014128318  0.8976465929706857  0.6772536758294281  1.0000
  C   C21       1.0  0.8687112973337366  0.9312479215227365  0.2626268633315507  1.0000
  C   C22       1.0  0.9068038438787752  0.024600266758068933  0.18303420832245343  1.0000
  C   C23       1.0  0.8940223490688193  0.03535725765545683  0.04809978916575841  1.0000
  C   C24       1.0  0.8433598597098867  0.9520849804485357  0.9899227393466958  1.0000
  C   C25       1.0  0.8043496356803145  0.8605679519796106  0.06940327881803632  1.0000
  C   C26       1.0  0.8171584893937278  0.8495543889606981  0.20430167313801165  1.0000
  N   N3        1.0  0.8281604040302452  0.9626920632798349  0.8516341856865246  1.0000
  C   C27       1.0  0.8830065757173104  0.9985292934941452  0.7560439582202201  1.0000
  O   O1        1.0  0.9519297354766775  0.9996257703848666  0.7872036525437691  1.0000
  C   C28       1.0  0.8590266157290982  0.02552433472567728  0.6163559934117835  1.0000
  H   H9        1.0  0.9066960488224938  0.3453421291210041  0.662524407852739  1.0000
  H   H10       1.0  0.8829369723248314  0.1269232544361265  0.42276018359239154  1.0000
  H   H11       1.0  0.8846598208121635  0.7097840448830597  0.4217161159008393  1.0000
  H   H12       1.0  0.9179116555754878  0.889205770709522  0.7817981563206589  1.0000
  H   H13       1.0  0.9262820305525538  0.5546186871382871  0.8660306721024541  1.0000
  H   H14       1.0  0.9469241120892068  0.08880276660801491  0.22504811107111847  1.0000
  H   H15       1.0  0.9228378030897687  0.11023831219902824  0.9898998412156782  1.0000
  H   H16       1.0  0.7641571884613796  0.7970713205038081  0.026518886262303365  1.0000
  H   H17       1.0  0.7859290798354566  0.7783393669043321  0.2632189377490195  1.0000
  H   H18       1.0  0.7752432812984436  0.9349310208702649  0.8180261594132849  1.0000
  H   H19       1.0  0.8047956836040315  0.08009482668537894  0.6093047330850818  1.0000
  H   H20       1.0  0.8520704955942215  0.9320756252534476  0.5707989107753839  1.0000
  H   H21       1.0  0.9017895505439318  0.08475060270889645  0.5630092522264181  1.0000
  C   C29       1.0  0.901611940111779  0.4032205095549009  0.22890639653567924  1.0000
  C   C30       1.0  0.9697392495227811  0.4706977833910404  0.2258215476086054  1.0000
  C   C31       1.0  0.004296570401804978  0.5047801393841209  0.10712988071025586  1.0000
  C   C32       1.0  0.9698117674666593  0.47048110276570876  0.9905553087165025  1.0000
  C   C33       1.0  0.9016834915579924  0.4030064090332528  0.9916484546289954  1.0000
  C   C34       1.0  0.867965439143381  0.36975313315257186  0.11131019881535065  1.0000
  C   C35       1.0  0.07637008226024355  0.5761640622385538  0.10492013956282009  1.0000
  C   C36       1.0  0.08822100209238837  0.6789316686048623  0.18525935065400745  1.0000
  C   C37       1.0  0.15609215372864127  0.7460185985434091  0.1829937731108573  1.0000
  C   C38       1.0  0.2128824681642758  0.7113690457388445  0.10073586332939621  1.0000
  C   C39       1.0  0.20174857063824847  0.6094461222066518  0.020559537608019426  1.0000
  C   C40       1.0  0.13394480158082311  0.5421574594912287  0.02245277091948328  1.0000
  Cl  Cl1       1.0  0.29799201616679327  0.7956632183155105  0.09812745210351981  1.0000
  H   H22       1.0  0.8756321905860703  0.3775660099617453  0.5575298497478574  1.0000
  H   H23       1.0  0.9966127346342311  0.4953426636272125  0.3160821085020289  1.0000
  H   H24       1.0  0.9956949941316218  0.4980882964282592  0.8986771931139583  1.0000
  H   H25       1.0  0.8154078991031732  0.31769865192639535  0.11292179305626761  1.0000
  H   H26       1.0  0.8757378121163378  0.3772492266297447  0.6646158174851631  1.0000
  H   H27       1.0  0.04466213097761096  0.708489140029035  0.24853834014411924  1.0000
  H   H28       1.0  0.1643816744336839  0.8251269676643247  0.24500094762862612  1.0000
  H   H29       1.0  0.24564981286620946  0.5820288721157936  0.9569527357443963  1.0000
  H   H30       1.0  0.12690235246024884  0.46248294312256694  0.9607250258471286  1.0000
  Zn  Zn1       1.0  0.8193278719709876  0.4048198700843332  0.6063362069958009  1.0000
  Zn  Zn2       1.0  0.9839603765590873  0.4014065413310347  0.6142176711510672  1.0000
  C   C41       1.0  0.901669436324791  0.3978727974430099  0.8474753558818643  1.0000
  C   C42       1.0  0.9016206096384932  0.4083552154130665  0.3730787352943159  1.0000
  C   C43       1.0  0.9015911739318722  0.6403259699737196  0.6050291878855603  1.0000
  C   C44       1.0  0.9016988162036881  0.1659004836009455  0.6155249703193728  1.0000
  O   O2        1.0  0.9641006979592844  0.40877746293988504  0.4244552655244465  1.0000
  O   O3        1.0  0.9641416098300312  0.39485893267600236  0.8020803010336736  1.0000
  O   O4        1.0  0.9640775698624446  0.590642952816113  0.6063032642947792  1.0000
  O   O5        1.0  0.9641646817377689  0.21299345328281066  0.6202322021958744  1.0000
  O   O6        1.0  0.8391235106113111  0.5932329592987742  0.6003216732546055  1.0000
  O   O7        1.0  0.8391875502256267  0.39745049960629225  0.7960986402683585  1.0000
  O   O8        1.0  0.8391466382683112  0.41136898504792346  0.4184720433661429  1.0000
  O   O9        1.0  0.8392106220549027  0.21558496607403033  0.6142490774086486  1.0000
