data_image0
_chemical_formula_structural       NC5NC4H6C7NH5C6OCH7Zn2C4O8
_chemical_formula_sum              "N3 C27 H18 O9 Zn2"
_cell_length_a       13.854160002989762
_cell_length_b       9.275154477615127
_cell_length_c       9.27389158865715
_cell_angle_alpha    86.29931945807607
_cell_angle_beta     89.68013189536481
_cell_angle_gamma    89.43370676253429

_space_group_name_H-M_alt    "P 1"
_space_group_IT_number       1

loop_
  _space_group_symop_operation_xyz
  'x, y, z'

loop_
  _atom_site_type_symbol
  _atom_site_label
  _atom_site_symmetry_multiplicity
  _atom_site_fract_x
  _atom_site_fract_y
  _atom_site_fract_z
  _atom_site_occupancy
  N   N1        1.0  0.9044810885885072  0.5636006599546128  0.41628062872520705  1.0000
  C   C1        1.0  0.8322054165570616  0.5882734705018127  0.35733908069178466  1.0000
  C   C2        1.0  0.7422934663679046  0.6189671100796612  0.2840135369683479  1.0000
  C   C3        1.0  0.6546454352742944  0.5901384039729238  0.3556139390577451  1.0000
  C   C4        1.0  0.5671510539896227  0.6189671241963672  0.28401351385450635  1.0000
  C   C5        1.0  0.4770972758215671  0.5882733240472995  0.357339171721589  1.0000
  N   N2        1.0  0.4047075184119933  0.5636005964735293  0.41628062838654123  1.0000
  C   C6        1.0  0.5673332457047088  0.6772309526517173  0.14083408649148565  1.0000
  C   C7        1.0  0.6549346814949782  0.7082082872702895  0.06913878699726196  1.0000
  C   C8        1.0  0.6551262438297335  0.766609582903685  0.9144722477805152  1.0000
  C   C9        1.0  0.7424103350918976  0.677230950512618  0.14083399621530338  1.0000
  H   H1        1.0  0.6545304643753634  0.5449320691247677  0.4664317453318447  1.0000
  H   H2        1.0  0.4995271024530242  0.6985098708730195  0.08527547912210065  1.0000
  H   H3        1.0  0.7196189131651294  0.8345378509711712  0.8909580592761738  1.0000
  H   H4        1.0  0.5899104352469231  0.8345378534344647  0.8909581243631921  1.0000
  H   H5        1.0  0.6559981087834567  0.6754636655691464  0.8425645894131586  1.0000
  H   H6        1.0  0.8103500611135731  0.6985099825567642  0.08527539414910203  1.0000
  C   C10       1.0  0.15739839530131938  0.14019628089448366  0.414612640941211  1.0000
  C   C11       1.0  0.13138646141163934  0.2222288505052388  0.2875214811993938  1.0000
  C   C12       1.0  0.09749790278751735  0.15510464428692794  0.16716252896268724  1.0000
  C   C13       1.0  0.08906114596524767  0.005032065941282363  0.17247724881236137  1.0000
  C   C14       1.0  0.1159786742320452  0.9217656871957945  0.2966714668919448  1.0000
  C   C15       1.0  0.15179948571028998  0.9869940071121499  0.4179611170269206  1.0000
  C   C16       1.0  0.07020763495071947  0.24070520784452712  0.038539589259643195  1.0000
  N   N3        1.0  0.04827383982202572  0.3095124521212571  0.9351596922081629  1.0000
  H   H7        1.0  0.17477095898654804  0.22005922663180974  0.7684324744986384  1.0000
  H   H8        1.0  0.13534460596540954  0.33914966723575324  0.2832445652711504  1.0000
  H   H9        1.0  0.06250134771747717  0.9520709991907967  0.07997383483662415  1.0000
  H   H10       1.0  0.11091067002911911  0.8052969474476007  0.2965446124100244  1.0000
  H   H11       1.0  0.16759734286589767  0.6903624170588395  0.6550304701157785  1.0000
  C   C17       1.0  0.15620543836287237  0.5597765397342744  0.9929964257174668  1.0000
  C   C18       1.0  0.23484866396934342  0.6206761711135511  0.061810944257883804  1.0000
  C   C19       1.0  0.30794566136816837  0.6923422641321066  0.982284589399336  1.0000
  C   C20       1.0  0.30266012544346643  0.7034700133713474  0.8308879777872661  1.0000
  C   C21       1.0  0.22605052539982162  0.6416973536946893  0.7607278093880607  1.0000
  C   C22       1.0  0.15299241639248226  0.567413671404063  0.8395772650801263  1.0000
  O   O1        1.0  0.38396462365676753  0.7514666720184433  0.05772499579827617  1.0000
  C   C23       1.0  0.46294715672734205  0.8273474296833662  0.9909486818285815  1.0000
  H   H12       1.0  0.9272033584767682  0.4712201727023066  0.10366347168355072  1.0000
  H   H13       1.0  0.35789838634458115  0.7585275769679357  0.7661835572297402  1.0000
  H   H14       1.0  0.2252225666807858  0.6491283518542874  0.6436760170276181  1.0000
  H   H15       1.0  0.00031995273534723734  0.5020766794815263  0.5638762455019006  1.0000
  H   H16       1.0  0.4363923532948937  0.9249173912389319  0.9269389151721348  1.0000
  H   H17       1.0  0.5036663502025278  0.7557895463643929  0.9202530616011089  1.0000
  H   H18       1.0  0.5121285281651997  0.8618109243232577  0.07592850788151018  1.0000
  Zn  Zn1       1.0  0.048835630200437796  0.5635968565967  0.4162889463630348  1.0000
  Zn  Zn2       1.0  0.26035301105737174  0.5635927079202461  0.4162841022830416  1.0000
  C   C24       1.0  0.1536355869686068  0.560226197780535  0.6795326647144543  1.0000
  C   C25       1.0  0.1555553514869523  0.5669651871999244  0.1530405325504336  1.0000
  C   C26       1.0  0.15287462668374263  0.8268793737667666  0.4115841020031554  1.0000
  C   C27       1.0  0.15631625075768163  0.3003102796251802  0.42098916526314367  1.0000
  O   O2        1.0  0.2356069616860863  0.5693698983231754  0.20675093364840746  1.0000
  O   O3        1.0  0.23412078342745013  0.5578172464545075  0.6258181678301871  1.0000
  O   O4        1.0  0.233505210610805  0.7731430718954582  0.4094478136132207  1.0000
  O   O5        1.0  0.23622246266816763  0.35404408222285655  0.4231211798293515  1.0000
  O   O6        1.0  0.0729661064091587  0.7731454822970067  0.40945186881080253  1.0000
  O   O7        1.0  0.07358166805945629  0.5578213884474857  0.6258221530204355  1.0000
  O   O8        1.0  0.07506785329183005  0.5693739744378752  0.20675318560421047  1.0000
  O   O9        1.0  0.07568335392799264  0.3540481489998417  0.42312353981525375  1.0000
