data_image0
_chemical_formula_structural       NC12NC2H8C12SCH12C12NCOH11Zn2C4O8
_chemical_formula_sum              "N3 C44 H31 S1 O9 Zn2"
_cell_length_a       19.240039667572717
_cell_length_b       10.299776766347529
_cell_length_c       10.299148425239204
_cell_angle_alpha    85.5384344644465
_cell_angle_beta     89.98519547309932
_cell_angle_gamma    89.97991714870845

_space_group_name_H-M_alt    "P 1"
_space_group_IT_number       1

loop_
  _space_group_symop_operation_xyz
  'x, y, z'

loop_
  _atom_site_type_symbol
  _atom_site_label
  _atom_site_symmetry_multiplicity
  _atom_site_fract_x
  _atom_site_fract_y
  _atom_site_fract_z
  _atom_site_occupancy
  N   N1        1.0  0.6544084679631342  0.42185743636071926  0.5674303999053878  1.0000
  C   C1        1.0  0.5942600991414216  0.421857520375317  0.5674303179674496  1.0000
  C   C2        1.0  0.5194420619972318  0.4218576377171446  0.5674301806597513  1.0000
  C   C3        1.0  0.4829661490218903  0.35734978752825025  0.6708457931683862  1.0000
  C   C4        1.0  0.4102954097641714  0.3572388712570726  0.6709323351052352  1.0000
  C   C5        1.0  0.37310982707400586  0.4218577303765343  0.5674299529672613  1.0000
  C   C6        1.0  0.41029992270907395  0.4864767763989768  0.4639277653946701  1.0000
  C   C7        1.0  0.48297062004233327  0.4863656245796175  0.4640144298270259  1.0000
  C   C8        1.0  0.2959047366623291  0.42185765175612033  0.5674298575403076  1.0000
  C   C9        1.0  0.2587323922366276  0.3085805612445669  0.6092967609568705  1.0000
  C   C10       1.0  0.1860616964180786  0.3086874985386717  0.6092054354557672  1.0000
  C   C11       1.0  0.14957244975495057  0.42185752255913717  0.5674299184471598  1.0000
  C   C12       1.0  0.07475441258696638  0.4218574087134147  0.5674301671187681  1.0000
  N   N2        1.0  0.014606095713715503  0.4218573678030591  0.5674303755504468  1.0000
  C   C13       1.0  0.18603071394151838  0.5350276224285446  0.5256543485485984  1.0000
  C   C14       1.0  0.25870140271366254  0.5351347399097275  0.525562860452206  1.0000
  H   H1        1.0  0.5106792187532773  0.30740612321241856  0.751589790908824  1.0000
  H   H2        1.0  0.3832000028045661  0.308092816266057  0.7527919667560101  1.0000
  H   H3        1.0  0.38320879888250386  0.5356228584634224  0.38206808289348504  1.0000
  H   H4        1.0  0.5106873217547159  0.5363091885185323  0.38327070789554707  1.0000
  H   H5        1.0  0.2858380879077212  0.21941307901526663  0.6404612225633919  1.0000
  H   H6        1.0  0.1583589634063032  0.22041875408488187  0.6414029911456173  1.0000
  H   H7        1.0  0.1583036235080967  0.6232963423396479  0.4934568074087394  1.0000
  H   H8        1.0  0.2857821858511109  0.6243023013335443  0.4943983540757378  1.0000
  C   C15       1.0  0.8345761523453633  0.04049227657050735  0.5674287761897381  1.0000
  C   C16       1.0  0.8387339203539818  0.02887394938663943  0.703951633590753  1.0000
  C   C17       1.0  0.8407737776040722  0.905848227308717  0.7731342110540844  1.0000
  C   C18       1.0  0.8386010195713341  0.7935861667249976  0.7039668249393756  1.0000
  C   C19       1.0  0.8344451079111064  0.8032125467084374  0.5674432181067519  1.0000
  C   C20       1.0  0.8324555470529406  0.9271041333301933  0.49993841473574485  1.0000
  C   C21       1.0  0.8451645676436254  0.8946212542074633  0.9175599901879831  1.0000
  C   C22       1.0  0.8053767492359967  0.8011301539771204  0.9916075479098784  1.0000
  C   C23       1.0  0.8095298707014668  0.7907987156761438  0.12752577656400435  1.0000
  C   C24       1.0  0.8532972740765729  0.8736790607502741  0.19120323845708487  1.0000
  C   C25       1.0  0.8932507644438534  0.9665958052934212  0.11852883569523376  1.0000
  C   C26       1.0  0.8891995582608543  0.9772771366599831  0.9826001913373799  1.0000
  S   S1        1.0  0.8587029437313444  0.8599618663240987  0.36560502560188857  1.0000
  C   C27       1.0  0.7888592337728461  0.9760156062543591  0.38513503393203896  1.0000
  H   H9        1.0  0.8330191974201128  0.3723728685839417  0.515407370230968  1.0000
  H   H10       1.0  0.8394370725416751  0.11568308762105971  0.7569134421205876  1.0000
  H   H11       1.0  0.8411164098312607  0.6985505783425072  0.756732483923265  1.0000
  H   H12       1.0  0.8292484810201661  0.9352986904590188  0.3946168351813464  1.0000
  H   H13       1.0  0.8328268170408845  0.47942686264261075  0.51542647822828  1.0000
  H   H14       1.0  0.7703958716221957  0.7371855998828808  0.9444903318324626  1.0000
  H   H15       1.0  0.7784483011633008  0.7187133603366052  0.18325093714358132  1.0000
  H   H16       1.0  0.9274917122526865  0.030595577026620854  0.16723509074040258  1.0000
  H   H17       1.0  0.9211581382896014  0.04899295594747531  0.9282881661043354  1.0000
  H   H18       1.0  0.802779418790429  0.07236555230382667  0.3362541647258767  1.0000
  H   H19       1.0  0.780791252664009  0.9866514004645561  0.4904212248738163  1.0000
  H   H20       1.0  0.7399583837465533  0.9405005530011908  0.3430101879822847  1.0000
  C   C28       1.0  0.8345628681188437  0.42200825318601387  0.18603977594826462  1.0000
  C   C29       1.0  0.9050732670554661  0.4575667910660301  0.18207100544219793  1.0000
  C   C30       1.0  0.9407131519645281  0.4753815125422156  0.06292661463184146  1.0000
  C   C31       1.0  0.904926807645115  0.45722664405895236  0.9468138440424716  1.0000
  C   C32       1.0  0.834458360544544  0.42169657955923223  0.9488321589258033  1.0000
  C   C33       1.0  0.7996898102548995  0.40428672234239876  0.06895094242945987  1.0000
  C   C34       1.0  0.015262699507252448  0.5129739137852838  0.05982079346413238  1.0000
  C   C35       1.0  0.06197535224044603  0.4556035410462078  0.9762216598752561  1.0000
  C   C36       1.0  0.13209278539087643  0.4911165288088035  0.9734482034714032  1.0000
  C   C37       1.0  0.15713955125023604  0.5833885582418856  0.05495892991520558  1.0000
  C   C38       1.0  0.11035760571951947  0.6426051278910534  0.13698970175979408  1.0000
  C   C39       1.0  0.04020874488484027  0.6071988076122696  0.13986000142780952  1.0000
  N   N3        1.0  0.22931413799017838  0.6195951532179129  0.04842420348725619  1.0000
  C   C40       1.0  0.2692860893056104  0.6562678126759087  0.15715498854390567  1.0000
  O   O1        1.0  0.24577170039349314  0.6421054145423526  0.2715149006221447  1.0000
  H   H21       1.0  0.7015886741604694  0.3541293881934784  0.40088349041890936  1.0000
  H   H22       1.0  0.9326464791154087  0.46976208091061955  0.2719976358253604  1.0000
  H   H23       1.0  0.9318907186684003  0.47261816593806905  0.8545812331165892  1.0000
  H   H24       1.0  0.7453365490174906  0.3768779601568304  0.07122281465227111  1.0000
  H   H25       1.0  0.807356347957042  0.4079944654670587  0.6221353185033931  1.0000
  H   H26       1.0  0.044465046363145966  0.3820945135594784  0.9140474285542286  1.0000
  H   H27       1.0  0.16721863080628951  0.4455790435122351  0.9084924235265532  1.0000
  H   H28       1.0  0.12747313160356843  0.7182786712713711  0.1967573654229806  1.0000
  H   H29       1.0  0.005164452255439488  0.655402519176119  0.20292325770999398  1.0000
  H   H30       1.0  0.25604675134630406  0.610655922986759  0.9612409560093411  1.0000
  H   H31       1.0  0.32146617260638943  0.6933072003719669  0.14133180876912954  1.0000
  Zn  Zn1       1.0  0.7583537313762957  0.4218539463487261  0.5674378817733358  1.0000
  Zn  Zn2       1.0  0.9106608514399138  0.4218502601089875  0.5674334931406328  1.0000
  C   C41       1.0  0.8344774592735581  0.4165818636674335  0.8046479972476834  1.0000
  C   C42       1.0  0.8345387864326221  0.4271239813012624  0.33022350512491383  1.0000
  C   C43       1.0  0.8344669910993688  0.6590443008646052  0.562264928133904  1.0000
  C   C44       1.0  0.8345492028936737  0.18465998378996004  0.5726066434542786  1.0000
  O   O2        1.0  0.8923304636812552  0.42883380179553177  0.37861121620087707  1.0000
  O   O3        1.0  0.89228336222592  0.41486826584248004  0.7562565814097315  1.0000
  O   O4        1.0  0.8922741296894764  0.6106597497022805  0.5605305382479077  1.0000
  O   O5        1.0  0.8923396442573404  0.23304232726690888  0.5743371619827371  1.0000
  O   O6        1.0  0.7766748865839247  0.6106618791934795  0.5605342129258974  1.0000
  O   O7        1.0  0.7766841188585619  0.4148719556504832  0.7562601868668026  1.0000
  O   O8        1.0  0.7767312205818189  0.428837446986049  0.3786132601446528  1.0000
  O   O9        1.0  0.7767404011433184  0.2330459631289228  0.574339303301143  1.0000
