data_image0
_chemical_formula_structural       NC9NC5H8C10ClC2H9C10SH8Zn2C4O8
_chemical_formula_sum              "N2 C40 H25 Cl1 S1 Zn2 O8"
_cell_length_a       17.807436237873137
_cell_length_b       10.299769246903262
_cell_length_c       10.297424231287907
_cell_angle_alpha    85.58145817024167
_cell_angle_beta     89.4057900124931
_cell_angle_gamma    88.40836129390726

_space_group_name_H-M_alt    "P 1"
_space_group_IT_number       1

loop_
  _space_group_symop_operation_xyz
  'x, y, z'

loop_
  _atom_site_type_symbol
  _atom_site_label
  _atom_site_symmetry_multiplicity
  _atom_site_fract_x
  _atom_site_fract_y
  _atom_site_fract_z
  _atom_site_occupancy
  N   N1        1.0  0.7074775652186033  0.38726216531834323  0.556905031582938  1.0000
  C   C1        1.0  0.6468820694545754  0.3520696021684549  0.5458781974538942  1.0000
  C   C2        1.0  0.5715079327317493  0.3082939292122886  0.532162013079704  1.0000
  C   C3        1.0  0.5533894457521342  0.23684648260700003  0.42713830580150836  1.0000
  C   C4        1.0  0.4802050169603691  0.1942321568390169  0.4137381285350265  1.0000
  C   C5        1.0  0.4240902825114372  0.22268774524441495  0.50532919112863  1.0000
  C   C6        1.0  0.34631413242752684  0.17751463284518554  0.49117036517706714  1.0000
  C   C7        1.0  0.2841563302634666  0.25927749601924743  0.5171161126515096  1.0000
  C   C8        1.0  0.2108295608503374  0.2164601407006568  0.503729613655064  1.0000
  C   C9        1.0  0.1476222149534636  0.3009144184207695  0.5300394004221303  1.0000
  N   N2        1.0  0.09681649596839587  0.3688098151759683  0.5511917422107753  1.0000
  C   C10       1.0  0.1990769976706128  0.09162193933375073  0.4643720060821898  1.0000
  C   C11       1.0  0.2603774263421617  0.00984522144087776  0.43841786702911123  1.0000
  C   C12       1.0  0.333584664030621  0.05226797847669884  0.45160178065768264  1.0000
  C   C13       1.0  0.44290029437654105  0.29462961882253125  0.6105721806636593  1.0000
  C   C14       1.0  0.5161375387367815  0.3370535039101821  0.6238166740173849  1.0000
  H   H1        1.0  0.5957707416427598  0.21433860351472878  0.3554119873257051  1.0000
  H   H2        1.0  0.4672715888219974  0.14052425355637976  0.3308012649085146  1.0000
  H   H3        1.0  0.2926756388715636  0.35674968768991194  0.5460009164476964  1.0000
  H   H4        1.0  0.1426042774180655  0.05758317471628673  0.45377431920922384  1.0000
  H   H5        1.0  0.2511597663603207  0.9131927254658471  0.40833245618042086  1.0000
  H   H6        1.0  0.3802108199285383  0.9865181567001045  0.4325482204756899  1.0000
  H   H7        1.0  0.4012359499297033  0.3165988769460662  0.6835932176450188  1.0000
  H   H8        1.0  0.5295994047554624  0.3919816320149119  0.7057117542747087  1.0000
  C   C15       1.0  0.9020799837161313  0.9966740541355681  0.5540441517992221  1.0000
  C   C16       1.0  0.9089999808967173  0.005847095151214169  0.41770980636760235  1.0000
  C   C17       1.0  0.9125782064253651  0.8933523227423851  0.34863768754881463  1.0000
  C   C18       1.0  0.909142591900523  0.770552186287887  0.41772966099416986  1.0000
  C   C19       1.0  0.902221277955106  0.7593876015667352  0.5540637509142701  1.0000
  C   C20       1.0  0.8987289308610342  0.8730034143881633  0.621457527589794  1.0000
  C   C21       1.0  0.9199002859054889  0.9041095721312397  0.20440741452352795  1.0000
  C   C22       1.0  0.9686005567159447  0.8188380489118727  0.14119365435126285  1.0000
  C   C23       1.0  0.9754254260754665  0.8291620470644183  0.005431622524715516  1.0000
  C   C24       1.0  0.9337682377239408  0.9244835979246983  0.9312258515442368  1.0000
  Cl  Cl1       1.0  0.9424137917252627  0.9371853644841329  0.7609091221211859  1.0000
  C   C25       1.0  0.8852108924624634  0.009667993123223527  0.992946331241018  1.0000
  C   C26       1.0  0.8782527774475855  0.9997428991733871  0.1286900238182398  1.0000
  H   H9        1.0  0.8994144033793564  0.32063374378375126  0.6059913828331467  1.0000
  H   H10       1.0  0.9126582933540849  0.10065779960161605  0.3650580470473175  1.0000
  H   H11       1.0  0.9108437463633008  0.6836160426608201  0.3648068853614119  1.0000
  H   H12       1.0  0.8933902159985998  0.8651587654893629  0.7266331328304145  1.0000
  H   H13       1.0  0.8996194378341525  0.42767766638563487  0.6060191076074781  1.0000
  H   H14       1.0  0.002107769730679498  0.7453315755721289  0.19681685076757116  1.0000
  H   H15       1.0  0.013259879525139288  0.7632015467691816  0.9580802728781843  1.0000
  H   H16       1.0  0.8526785318342841  0.08341768627584402  0.9358561475389594  1.0000
  H   H17       1.0  0.8396051066752444  0.06569720141311697  0.17432777027859814  1.0000
  C   C27       1.0  0.9021000436036491  0.37790550065617956  0.17261660446781768  1.0000
  C   C28       1.0  0.9769883665928087  0.4174707738393564  0.16748239507307816  1.0000
  C   C29       1.0  0.015232317104833191  0.43741384311176734  0.04771316245119883  1.0000
  C   C30       1.0  0.977116208014494  0.4177575236304123  0.9322529934582121  1.0000
  C   C31       1.0  0.902201170489545  0.3781561349280315  0.93549135398457  1.0000
  C   C32       1.0  0.8651830226433267  0.358371871585194  0.05610063832296586  1.0000
  C   C33       1.0  0.0944766544769564  0.4793145715512097  0.042327589064013786  1.0000
  C   C34       1.0  0.14461581020801834  0.4760369499415345  0.145910083071364  1.0000
  C   C35       1.0  0.21577644535009607  0.5220204787160967  0.11020013160953268  1.0000
  C   C36       1.0  0.2227581923689648  0.5618229672128083  0.9789590662277424  1.0000
  S   S1        1.0  0.14026997583699274  0.5394755291467642  0.9075630971264053  1.0000
  H   H18       1.0  0.8730540144580476  0.36299732082457575  0.5021186431904932  1.0000
  H   H19       1.0  0.004979692302464972  0.43414763449457183  0.25710233231819934  1.0000
  H   H20       1.0  0.00589890588723252  0.4323108224513095  0.8393930623164017  1.0000
  H   H21       1.0  0.8074363658121826  0.32784548496041466  0.0593779757885493  1.0000
  H   H22       1.0  0.7607630612035832  0.303297972238352  0.7343607586154373  1.0000
  H   H23       1.0  0.1313596445555114  0.44022566495762505  0.244675673326326  1.0000
  H   H24       1.0  0.2612356260230251  0.5257074385506135  0.17859071956891337  1.0000
  H   H25       1.0  0.2727142784693437  0.6001579252276369  0.9311963566933427  1.0000
  Zn  Zn1       1.0  0.8198323696104556  0.3819337529072001  0.5552638117352202  1.0000
  Zn  Zn2       1.0  0.9844616728344967  0.37412764512014013  0.5528436403142161  1.0000
  C   C37       1.0  0.9021794376123312  0.3729352948937277  0.7912915703540065  1.0000
  C   C38       1.0  0.9021164028998931  0.3831276565219708  0.3168159827987569  1.0000
  C   C39       1.0  0.9021899961500858  0.6152170092827587  0.5488840356420195  1.0000
  C   C40       1.0  0.9021057879058555  0.14084438454599302  0.5592235875474596  1.0000
  O   O1        1.0  0.9645978547804773  0.3819122168768041  0.36429216885687565  1.0000
  O   O2        1.0  0.9646478173849825  0.3682250995225184  0.7419781562479364  1.0000
  O   O3        1.0  0.964655501510968  0.5638706883402149  0.5462323693104756  1.0000
  O   O4        1.0  0.9645901144664699  0.18626663998084864  0.5600378592282704  1.0000
  O   O5        1.0  0.8397038717985799  0.5697947607117446  0.5480695936402196  1.0000
  O   O6        1.0  0.8396961879489757  0.3741507321462474  0.7438153113600181  1.0000
  O   O7        1.0  0.8396462251789928  0.3878378037298773  0.366127762286113  1.0000
  O   O8        1.0  0.839638484873105  0.1921922175774342  0.5618735500426275  1.0000
