data_image0
_chemical_formula_structural       NC8NH4C10H6C6ClH4Zn2C4O8
_chemical_formula_sum              "N2 C28 H14 Cl1 Zn2 O8"
_cell_length_a       13.859017124695912
_cell_length_b       9.275150299802176
_cell_length_c       9.276548810779733
_cell_angle_alpha    85.75527424230437
_cell_angle_beta     89.72475413929395
_cell_angle_gamma    89.4839206584006

_space_group_name_H-M_alt    "P 1"
_space_group_IT_number       1

loop_
  _space_group_symop_operation_xyz
  'x, y, z'

loop_
  _atom_site_type_symbol
  _atom_site_label
  _atom_site_symmetry_multiplicity
  _atom_site_fract_x
  _atom_site_fract_y
  _atom_site_fract_z
  _atom_site_occupancy
  N   N1        1.0  0.9042981364515613  0.5644663190653376  0.40168626029805976  1.0000
  C   C1        1.0  0.8322646930842432  0.5410841798670611  0.3456713512809211  1.0000
  C   C2        1.0  0.7426593417395103  0.5120002112236899  0.2759960012296627  1.0000
  C   C3        1.0  0.6546548187365036  0.5403541229215252  0.3439206973428433  1.0000
  C   C4        1.0  0.5674290164032667  0.5120014323012321  0.27599541517217485  1.0000
  C   C5        1.0  0.5683902594559727  0.4552871359566062  0.14012458118254978  1.0000
  C   C6        1.0  0.6562107245364133  0.42704220463541526  0.07246134632024459  1.0000
  C   C7        1.0  0.7432556286046192  0.4552847962165806  0.14012577246301006  1.0000
  C   C8        1.0  0.4770248504232377  0.5410851022838932  0.3456708481759415  1.0000
  N   N2        1.0  0.40434926080633515  0.5644666398459581  0.40168604253124396  1.0000
  H   H1        1.0  0.6540519915943427  0.5842531852403383  0.44908797328661737  1.0000
  H   H2        1.0  0.5014012719198061  0.43297151840800946  0.08666039825916252  1.0000
  H   H3        1.0  0.6568123923663031  0.3832327965703504  0.9675070476145893  1.0000
  H   H4        1.0  0.810857508178192  0.43296708613245927  0.08666260034722661  1.0000
  C   C9        1.0  0.15686632264396727  0.14078298267091638  0.404098410477819  1.0000
  C   C10       1.0  0.2079650157713231  0.22183998828483256  0.29508610324662926  1.0000
  C   C11       1.0  0.250806856204977  0.15464479655348518  0.18053393710654797  1.0000
  C   C12       1.0  0.24298575533821576  0.005413239940146089  0.17351859418802307  1.0000
  C   C13       1.0  0.19399572483385552  0.9229064837698694  0.28188331217764895  1.0000
  C   C14       1.0  0.15179030114704897  0.9881389877717944  0.39928644088051346  1.0000
  C   C15       1.0  0.3019254167757133  0.23942118756897005  0.06902917487996052  1.0000
  C   C16       1.0  0.344724554615607  0.3104240401259539  0.9756764481887422  1.0000
  C   C17       1.0  0.3948403597954879  0.39357335935548465  0.8663644765466426  1.0000
  C   C18       1.0  0.4376312457503282  0.46457089310802485  0.7730296449169761  1.0000
  H   H5        1.0  0.11036455502042974  0.40519539962886997  0.632911041127538  1.0000
  H   H6        1.0  0.21259375923614354  0.3383086753453368  0.2973120929890694  1.0000
  H   H7        1.0  0.27562021536947334  0.952458990628108  0.08487928592597063  1.0000
  H   H8        1.0  0.19106520208696565  0.8068496353640444  0.2756623919993302  1.0000
  H   H9        1.0  0.08797334395063873  0.8607931967255665  0.7416395058762197  1.0000
  H   H10       1.0  0.47520521291191575  0.5269127567990466  0.6910739537802844  1.0000
  C   C19       1.0  0.15571150387108212  0.5605956803233071  0.9785650194871249  1.0000
  C   C20       1.0  0.23632198111682  0.6154405928732896  0.047360005491410055  1.0000
  C   C21       1.0  0.3114563157151076  0.6810388631634418  0.9667549833790727  1.0000
  C   C22       1.0  0.3071063607895008  0.6928963721200954  0.8162481224945899  1.0000
  C   C23       1.0  0.2286043576730854  0.6370394201025276  0.7458097765175487  1.0000
  C   C24       1.0  0.15294512566488838  0.5683262592979688  0.8248198573276517  1.0000
  Cl  Cl1       1.0  0.41065353124021087  0.7505097262286311  0.05486489822278862  1.0000
  H   H11       1.0  0.03960761334935169  0.3991065030992762  0.27248427349897986  1.0000
  H   H12       1.0  0.36505573558346716  0.744221875920988  0.7534673762024036  1.0000
  H   H13       1.0  0.22820549372982726  0.6445676704125177  0.6287187339991864  1.0000
  H   H14       1.0  0.9982673801407317  0.5154303283471822  0.5485242066055767  1.0000
  Zn  Zn1       1.0  0.04860208811087352  0.5644626356398272  0.4016945446093473  1.0000
  Zn  Zn2       1.0  0.2600453333822594  0.5644586618554824  0.40168964305293087  1.0000
  C   C25       1.0  0.15350032713562456  0.561117338990976  0.6648921875488246  1.0000
  C   C26       1.0  0.15514939194377253  0.5678057801848715  0.138492131145596  1.0000
  C   C27       1.0  0.1527636047658996  0.8279182351811047  0.3944541674563229  1.0000
  C   C28       1.0  0.15588605229546815  0.30100315127248534  0.40893023790357014  1.0000
  O   O1        1.0  0.23520238938655802  0.5702177531513846  0.19216330639987445  1.0000
  O   O2        1.0  0.23392786826615522  0.5587012577977721  0.611216883526817  1.0000
  O   O3        1.0  0.23333186904253633  0.7741463693361035  0.39283626041407693  1.0000
  O   O4        1.0  0.23579831675025886  0.35477265094849564  0.4105438214188413  1.0000
  O   O5        1.0  0.07284903258768695  0.774148646549671  0.39284036623752105  1.0000
  O   O6        1.0  0.07344502167414824  0.5587052677364555  0.6112209026788737  1.0000
  O   O7        1.0  0.07471954882290932  0.5702216969873544  0.1921655934691462  1.0000
  O   O8        1.0  0.07531547589134104  0.3547765854518812  0.410546216575971  1.0000
