data_image0
_chemical_formula_structural       NC9NC4H8C9H10C8NH11Zn2C4O8
_chemical_formula_sum              "N3 C34 H29 Zn2 O8"
_cell_length_a       16.32274767691083
_cell_length_b       9.27267660452572
_cell_length_c       9.275652972338538
_cell_angle_alpha    86.18554014345204
_cell_angle_beta     89.90519038886141
_cell_angle_gamma    90.07922574154927

_space_group_name_H-M_alt    "P 1"
_space_group_IT_number       1

loop_
  _space_group_symop_operation_xyz
  'x, y, z'

loop_
  _atom_site_type_symbol
  _atom_site_label
  _atom_site_symmetry_multiplicity
  _atom_site_fract_x
  _atom_site_fract_y
  _atom_site_fract_z
  _atom_site_occupancy
  N   N1        1.0  0.7731441382595522  0.5573254237957262  0.4050818913316731  1.0000
  C   C1        1.0  0.7202657719466211  0.5042515032482051  0.3446005368486196  1.0000
  C   C2        1.0  0.654537948390778  0.4383332806419283  0.26948221100098574  1.0000
  C   C3        1.0  0.6651685125655071  0.34816888381549954  0.16672894529018567  1.0000
  C   C4        1.0  0.5853528835994044  0.30416820597220307  0.11658875261862889  1.0000
  C   C5        1.0  0.5270784868845768  0.36856223847380476  0.18997608767976937  1.0000
  C   C6        1.0  0.4369669480496289  0.35154350030612425  0.1705843905812534  1.0000
  C   C7        1.0  0.3821386674390966  0.426598849816651  0.2561138637034872  1.0000
  C   C8        1.0  0.2972813972146143  0.4120538163542083  0.23954049159720167  1.0000
  C   C9        1.0  0.2420647861685213  0.48941649972760204  0.32769844614814936  1.0000
  N   N2        1.0  0.197689440283593  0.551603364043758  0.3985625119330374  1.0000
  C   C10       1.0  0.266198130799994  0.3223320504095087  0.13730001502600753  1.0000
  C   C11       1.0  0.31970551146545956  0.24737611969173767  0.051884210710285046  1.0000
  C   C12       1.0  0.40439997810399897  0.26152937603492843  0.06801099896917484  1.0000
  C   C13       1.0  0.5657928375975491  0.46245580329733715  0.29697630828926624  1.0000
  H   H1        1.0  0.7237174467538461  0.313108185120885  0.1267705398802803  1.0000
  H   H2        1.0  0.5763039616147129  0.23047695546838542  0.03260843159911175  1.0000
  H   H3        1.0  0.4049673849863536  0.49664181443183836  0.33592991001998884  1.0000
  H   H4        1.0  0.2006838461803012  0.310349957706046  0.12364724332011966  1.0000
  H   H5        1.0  0.29548724030781504  0.1779679702271784  0.9727918384818798  1.0000
  H   H6        1.0  0.4435680636102124  0.2015694592441479  0.9996842913789803  1.0000
  H   H7        1.0  0.5492945388247565  0.4246190667864922  0.4094609375746927  1.0000
  H   H8        1.0  0.5495416850254226  0.5778452088330357  0.27287240973298954  1.0000
  C   C14       1.0  0.9830915954342109  0.1309948518318016  0.4000165899928039  1.0000
  C   C15       1.0  0.9508144490826731  0.196336167244148  0.5198866778062694  1.0000
  C   C16       1.0  0.9260476382150545  0.11336406480970429  0.6431641869630309  1.0000
  C   C17       1.0  0.9327594809780371  0.9625761050287153  0.6507192846195304  1.0000
  C   C18       1.0  0.9636896521035961  0.8957957685996913  0.5297593554783526  1.0000
  C   C19       1.0  0.987749853782823  0.9779227574462144  0.4036401319793841  1.0000
  C   C20       1.0  0.9051307699357865  0.8802689346427975  0.7896053420209472  1.0000
  C   C21       1.0  0.8636660801911713  0.7346362944659816  0.775890722580884  1.0000
  C   C22       1.0  0.9504305468809622  0.7413228413203602  0.8355470974762201  1.0000
  H   H9        1.0  0.000264857814106902  0.42799136578353786  0.16355633508415957  1.0000
  H   H10       1.0  0.9464913314841966  0.31291602462950396  0.5198145009791342  1.0000
  H   H11       1.0  0.902169771294867  0.1677450872342399  0.7340964977270208  1.0000
  H   H12       1.0  0.967603517834528  0.7793517326187391  0.5310377292412909  1.0000
  H   H13       1.0  0.007485004806200738  0.8984534849245511  0.05040464704460979  1.0000
  H   H14       1.0  0.8823321939057317  0.9413131424669866  0.8807087613935242  1.0000
  H   H15       1.0  0.8593906042239273  0.6947002405469618  0.6660727688619679  1.0000
  H   H16       1.0  0.8165477293763709  0.7070516970856053  0.8597693468180647  1.0000
  H   H17       1.0  0.9988352613129663  0.7053209361671551  0.7620526906765095  1.0000
  H   H18       1.0  0.9540198270786113  0.7176403092481235  0.9543110751806023  1.0000
  C   C23       1.0  0.9835815546643425  0.5516728299264317  0.9785735963938302  1.0000
  C   C24       1.0  0.930965264550184  0.6467175068039941  0.04594025101954902  1.0000
  C   C25       1.0  0.884863506093265  0.7500898167032317  0.964396407480705  1.0000
  C   C26       1.0  0.8902638414553812  0.7570430986253688  0.8135587547466336  1.0000
  C   C27       1.0  0.9410767860654581  0.6620869235958424  0.7448119951864034  1.0000
  C   C28       1.0  0.9872598916163892  0.5572448041123166  0.8250830997832499  1.0000
  C   C29       1.0  0.827909879055319  0.8495210266934179  0.0382451462863338  1.0000
  C   C30       1.0  0.743292407787267  0.7801979804842695  0.06002449751604689  1.0000
  N   N3        1.0  0.6882672647196902  0.8783997942239349  0.12950253798342182  1.0000
  H   H19       1.0  0.042448319929474954  0.3366117124172573  0.2733421136347878  1.0000
  H   H20       1.0  0.9270465273481188  0.6427579543549613  0.16281045401645766  1.0000
  H   H21       1.0  0.8543663955949663  0.8352064815303915  0.7488656826023963  1.0000
  H   H22       1.0  0.9425898592474965  0.6682603047627004  0.627795907445869  1.0000
  H   H23       1.0  0.09887627268765375  0.423652745045526  0.5523127274084376  1.0000
  H   H24       1.0  0.8537040569272931  0.8745137735674734  0.14467389942448095  1.0000
  H   H25       1.0  0.8219242017563604  0.9537210017737419  0.9724817935435497  1.0000
  H   H26       1.0  0.7175477178701376  0.7563633016668205  0.9531828851422982  1.0000
  H   H27       1.0  0.7485071231304682  0.6768381068339195  0.12768648448426445  1.0000
  H   H28       1.0  0.6301402784755712  0.8307539046938405  0.1345866936537099  1.0000
  H   H29       1.0  0.7074897373040208  0.885358996847397  0.23635877428534033  1.0000
  Zn  Zn1       1.0  0.8956587628287946  0.5556703453815046  0.40320884641893073  1.0000
  Zn  Zn2       1.0  0.07517480810875576  0.5532466867497516  0.40044731390098165  1.0000
  C   C31       1.0  0.986531160754947  0.5504467801374524  0.6650501341933153  1.0000
  C   C32       1.0  0.9843043811145344  0.5584720459709676  0.13860614522153458  1.0000
  C   C33       1.0  0.9868401472021613  0.8177976184832421  0.39721169471852313  1.0000
  C   C34       1.0  0.9839953242156628  0.29111947640841573  0.4064446550691707  1.0000
  O   O1        1.0  0.05267233729978194  0.5598278679658417  0.1912665164082925  1.0000
  O   O2        1.0  0.054411721432285225  0.5472503667123552  0.6102934041628985  1.0000
  O   O3        1.0  0.05466032004527731  0.7631395720531067  0.3940119898283767  1.0000
  O   O4        1.0  0.05242367701727168  0.3439386730565783  0.4075478236599219  1.0000
  O   O5        1.0  0.9184098326602385  0.764978359903274  0.39610833759479136  1.0000
  O   O6        1.0  0.9181612432388632  0.5490908866078807  0.6123896824912696  1.0000
  O   O7        1.0  0.9164218513545778  0.5616683262023408  0.19336106163111988  1.0000
  O   O8        1.0  0.9161731914815451  0.3457791216901849  0.40964247690044253  1.0000
