data_image0
_chemical_formula_structural       NC9NC3NH7C9H10C8NH11Zn2C4O8
_chemical_formula_sum              "N4 C33 H28 Zn2 O8"
_cell_length_a       16.053384444249904
_cell_length_b       9.272676604525723
_cell_length_c       9.275652972338538
_cell_angle_alpha    86.18554014345204
_cell_angle_beta     90.23845156290304
_cell_angle_gamma    89.72820801156413

_space_group_name_H-M_alt    "P 1"
_space_group_IT_number       1

loop_
  _space_group_symop_operation_xyz
  'x, y, z'

loop_
  _atom_site_type_symbol
  _atom_site_label
  _atom_site_symmetry_multiplicity
  _atom_site_fract_x
  _atom_site_fract_y
  _atom_site_fract_z
  _atom_site_occupancy
  N   N1        1.0  0.7861316956046511  0.5484214228693172  0.4135876851724523  1.0000
  C   C1        1.0  0.7348842233146403  0.5247701312667716  0.3304174999021996  1.0000
  C   C2        1.0  0.6711978277916718  0.49538328989944896  0.22709982814139182  1.0000
  C   C3        1.0  0.6841056583253963  0.48102435308056574  0.08194716497302834  1.0000
  C   C4        1.0  0.6070707080814186  0.4525239451436846  0.023831288994364812  1.0000
  C   C5        1.0  0.5504564951995469  0.4510805607869124  0.13666229813427488  1.0000
  C   C6        1.0  0.4596065038851821  0.42455688695282073  0.12517504660163592  1.0000
  C   C7        1.0  0.4044313804618626  0.472663178062989  0.2296037585600794  1.0000
  C   C8        1.0  0.3186950113953922  0.4475072468334521  0.21860222209091118  1.0000
  C   C9        1.0  0.2627621575341396  0.49756809950762015  0.3256718102658808  1.0000
  N   N2        1.0  0.21780869390609509  0.5378099547630351  0.4117389949736116  1.0000
  C   C10       1.0  0.2874071074445139  0.3741207860653827  0.10318665006912207  1.0000
  C   C11       1.0  0.3415754485017063  0.32614884084492735  0.9989934357573563  1.0000
  C   C12       1.0  0.4271028987033186  0.35111788530100907  0.009554025028646327  1.0000
  N   N3        1.0  0.5903290495349569  0.47739661954455664  0.2605824993779257  1.0000
  H   H1        1.0  0.7426432128611488  0.49023739917405096  0.024702678117030526  1.0000
  H   H2        1.0  0.5942338598016584  0.4364967882442425  0.9114752390879479  1.0000
  H   H3        1.0  0.4274619450360116  0.5314881954139323  0.31842102354531243  1.0000
  H   H4        1.0  0.2212324193993115  0.35411084644969026  0.09374117664070791  1.0000
  H   H5        1.0  0.3172636016043414  0.2691450023304482  0.9099245436521497  1.0000
  H   H6        1.0  0.46764667626762096  0.31123188337915414  0.9280889716372704  1.0000
  H   H7        1.0  0.5646299338707268  0.4806987496682608  0.36354288442593696  1.0000
  C   C13       1.0  0.999605926772128  0.11967296753711332  0.4108321339820401  1.0000
  C   C14       1.0  0.9667865771386506  0.18538600631486357  0.5303471227408161  1.0000
  C   C15       1.0  0.9416037243449784  0.10269913362736657  0.6533521582708517  1.0000
  C   C16       1.0  0.9484283150917611  0.9518338761586346  0.660981096687448  1.0000
  C   C17       1.0  0.9798780625179198  0.8846973289550251  0.5403614477683338  1.0000
  C   C18       1.0  0.004342436244220149  0.9665472257983362  0.4145069240906838  1.0000
  C   C19       1.0  0.920335486880052  0.8698448949130618  0.7995631950874543  1.0000
  C   C20       1.0  0.8781742581471605  0.7246897874725488  0.7853923992564867  1.0000
  C   C21       1.0  0.966396226007674  0.7303771016437117  0.8460033188865607  1.0000
  H   H8        1.0  0.01706767187978975  0.4164717036922219  0.17456081179906602  1.0000
  H   H9        1.0  0.9623908382333032  0.3020156513674824  0.5302273848636485  1.0000
  H   H10       1.0  0.9173247483035308  0.15735514817647078  0.7440217751808367  1.0000
  H   H11       1.0  0.9838576747935199  0.7682082185017077  0.541682880171156  1.0000
  H   H12       1.0  0.024409105535598163  0.886850671202996  0.06148855666054365  1.0000
  H   H13       1.0  0.8971539320509295  0.9311516650875903  0.8904157944926038  1.0000
  H   H14       1.0  0.8738269611745513  0.6848029725506176  0.6755274086199397  1.0000
  H   H15       1.0  0.830264396082477  0.6976478338484197  0.8687526479950828  1.0000
  H   H16       1.0  0.015614060494981489  0.693817738183812  0.7730414395956361  1.0000
  H   H17       1.0  0.9700458002437669  0.706653233224702  0.9648067842826772  1.0000
  C   C22       1.0  0.00010411651618724992  0.540345302961479  0.9893945307003382  1.0000
  C   C23       1.0  0.9466039587616658  0.6359959412280465  0.05618232390264177  1.0000
  C   C24       1.0  0.899727766144233  0.7398991871839596  0.9741312889699469  1.0000
  C   C25       1.0  0.9052188183102768  0.7467902755399972  0.8233530483648535  1.0000
  C   C26       1.0  0.9568853373049211  0.6512489075516261  0.7551653106091075  1.0000
  C   C27       1.0  0.0038442435145338324  0.5458749151685194  0.8359445015449745  1.0000
  C   C28       1.0  0.8418174112976383  0.8399863099888631  0.047353448867326835  1.0000
  C   C29       1.0  0.7557785048713699  0.771637770350065  0.06820187566740588  1.0000
  N   N4        1.0  0.6998290293725582  0.8704732873031464  0.13707455356416687  1.0000
  H   H18       1.0  0.059959747183989  0.32460623976725356  0.2848106743600194  1.0000
  H   H19       1.0  0.942619393182182  0.6320815193542203  0.17300941466587091  1.0000
  H   H20       1.0  0.8687183540557702  0.8253670753945636  0.7582650482132891  1.0000
  H   H21       1.0  0.9584238276423729  0.6574048632419807  0.6381658690383047  1.0000
  H   H22       1.0  0.11733559728245324  0.4109974135674323  0.5644020838032836  1.0000
  H   H23       1.0  0.8680448891814787  0.8646819953289789  0.15406597827488389  1.0000
  H   H24       1.0  0.8357311844073131  0.9442552197911597  0.981524244319449  1.0000
  H   H25       1.0  0.7296013462590976  0.7480995831329893  0.9610770314690934  1.0000
  H   H26       1.0  0.7610808189056903  0.66821784084732  0.13592123265429445  1.0000
  H   H27       1.0  0.640725604803701  0.8234968237102804  0.1415192215411365  1.0000
  H   H28       1.0  0.7193744080654  0.8772111121715065  0.2441422671066422  1.0000
  Zn  Zn1       1.0  0.9107043655414601  0.5453553910808402  0.41306249260379246  1.0000
  Zn  Zn2       1.0  0.09323598685319112  0.5408643158389369  0.4122759171432691  1.0000
  C   C30       1.0  0.0031032711661760385  0.5390852837041126  0.6759035187766557  1.0000
  C   C31       1.0  0.0008390852688395792  0.54713619449437  0.14943503174867476  1.0000
  C   C32       1.0  0.0034174480804758426  0.8064325635729293  0.4080684786356873  1.0000
  C   C33       1.0  0.0005248367194101701  0.2797871842201547  0.41727014148740893  1.0000
  O   O1        1.0  0.07035551132869822  0.5477046492764751  0.20284755730335724  1.0000
  O   O2        1.0  0.07212411427053844  0.5351071162111167  0.6218935810018428  1.0000
  O   O3        1.0  0.07237688893374263  0.7509934585381417  0.40561490164059  1.0000
  O   O4        1.0  0.07010267396002924  0.33181831809116175  0.4191261289032564  1.0000
  O   O5        1.0  0.9338376161455133  0.7544013903627191  0.4062122811046498  1.0000
  O   O6        1.0  0.9335848508283302  0.538516779975196  0.6224908911289813  1.0000
  O   O7        1.0  0.9318162400044903  0.5511142514708014  0.20344313423966942  1.0000
  O   O8        1.0  0.9315634030521777  0.33522791067788005  0.41972181386176677  1.0000
