data_image0
_chemical_formula_structural       NC9NC4H8C7F3H5C8NH11Zn2C4O8
_chemical_formula_sum              "N3 C32 H24 F3 Zn2 O8"
_cell_length_a       16.32274767691083
_cell_length_b       9.272718291674593
_cell_length_c       9.275652972338538
_cell_angle_alpha    86.37424905988952
_cell_angle_beta     89.90519038886141
_cell_angle_gamma    89.10298441660798

_space_group_name_H-M_alt    "P 1"
_space_group_IT_number       1

loop_
  _space_group_symop_operation_xyz
  'x, y, z'

loop_
  _atom_site_type_symbol
  _atom_site_label
  _atom_site_symmetry_multiplicity
  _atom_site_fract_x
  _atom_site_fract_y
  _atom_site_fract_z
  _atom_site_occupancy
  N   N1        1.0  0.7580672378534191  0.557172265660753  0.41025177591690065  1.0000
  C   C1        1.0  0.7057026949212865  0.5041035647690357  0.3495942308705109  1.0000
  C   C2        1.0  0.640613044005534  0.4381918250159127  0.27425707497121876  1.0000
  C   C3        1.0  0.6521165147740681  0.3480362955788219  0.17120448869570803  1.0000
  C   C4        1.0  0.5727268686035385  0.3040399450659943  0.12091822608742199  1.0000
  C   C5        1.0  0.5138290553567894  0.36842764461382127  0.19451933131562127  1.0000
  C   C6        1.0  0.42388227965770997  0.35141058018636007  0.17507113676912933  1.0000
  C   C7        1.0  0.3683273673411597  0.42645854823558516  0.26084977264729314  1.0000
  C   C8        1.0  0.2836109116295379  0.4119149452321617  0.24422811510037978  1.0000
  C   C9        1.0  0.22764533093679976  0.4892700202251092  0.33264289210996867  1.0000
  N   N2        1.0  0.1826679367288052  0.5514507686556493  0.40371340088122265  1.0000
  C   C10       1.0  0.253396266576093  0.32220200314542224  0.14168978737513016  1.0000
  C   C11       1.0  0.3076293164466029  0.2472534441114236  0.05602515034604715  1.0000
  C   C12       1.0  0.3921867614754976  0.26140530852566224  0.07219892345516832  1.0000
  C   C13       1.0  0.5516343963637679  0.4623119752958858  0.3018312522839619  1.0000
  H   H1        1.0  0.711004881334287  0.3129790449953995  0.13112969157796894  1.0000
  H   H2        1.0  0.5643913721031247  0.23035594186856437  0.03669327073892959  1.0000
  H   H3        1.0  0.39047797947414864  0.4964946243420094  0.34089834200460234  1.0000
  H   H4        1.0  0.18799798392720662  0.31022108884368915  0.12799723847468858  1.0000
  H   H5        1.0  0.2840830048812576  0.1778521207235222  0.9767023624854799  1.0000
  H   H6        1.0  0.43193533560663294  0.20145128860710118  0.0036731657211750376  1.0000
  H   H7        1.0  0.5355024055567675  0.4244789599109591  0.414190274192886  1.0000
  H   H8        1.0  0.5342661268752905  0.5776900326407199  0.278110414262023  1.0000
  C   C14       1.0  0.9721421198266298  0.1308836219889416  0.4037711763888865  1.0000
  C   C15       1.0  0.9217745523580627  0.212209241748363  0.304933511609367  1.0000
  C   C16       1.0  0.8656585723994318  0.14484401676667982  0.21755756213631416  1.0000
  C   C17       1.0  0.8620688720881412  0.9936600329602309  0.22603984029352042  1.0000
  C   C18       1.0  0.9124843313663851  0.9113538577487944  0.3217577049817886  1.0000
  C   C19       1.0  0.9686009915177262  0.9777282435337422  0.41020631210715375  1.0000
  C   C20       1.0  0.8137615079759574  0.23372629187945965  0.10957339254496512  1.0000
  F   F1        1.0  0.7929335607215484  0.36577627500011767  0.16227955282854167  1.0000
  F   F2        1.0  0.7421152461401466  0.1630900447281958  0.08056185049694897  1.0000
  F   F3        1.0  0.8574179390623038  0.25707636805750234  0.9826397492214533  1.0000
  H   H9        1.0  0.0707535299567803  0.21032689298624563  0.7133275866076147  1.0000
  H   H10       1.0  0.925016108402683  0.3290895570510368  0.29817485969539126  1.0000
  H   H11       1.0  0.8208206471710459  0.9386600239853647  0.15736078359338435  1.0000
  H   H12       1.0  0.9091487557194105  0.7946426761147395  0.3237484070930552  1.0000
  H   H13       1.0  0.14522430064437075  0.8605939042008087  0.5809727813527952  1.0000
  C   C21       1.0  0.9685593785910308  0.5515202277065687  0.9837247159493052  1.0000
  C   C22       1.0  0.9150229345350437  0.6465555572343565  0.051406892303745615  1.0000
  C   C23       1.0  0.8679204000057068  0.749917700786888  0.9702062159047435  1.0000
  C   C24       1.0  0.8732534187123355  0.7568702988752709  0.8193916461207582  1.0000
  C   C25       1.0  0.9249856604532447  0.6619234624916368  0.7503296586331758  1.0000
  C   C26       1.0  0.9721837717118258  0.5570916539060397  0.8302527167336904  1.0000
  C   C27       1.0  0.8100041517792944  0.8493391320253456  0.04438503850144371  1.0000
  C   C28       1.0  0.7260578161952651  0.7800229035232136  0.06593425661798613  1.0000
  N   N3        1.0  0.6700819540661284  0.8782150594184653  0.13573829962493145  1.0000
  H   H14       1.0  0.029508210327546806  0.3364802607926132  0.2777792904655736  1.0000
  H   H15       1.0  0.9111425308610994  0.6425963941950505  0.16826395069461464  1.0000
  H   H16       1.0  0.8365992514104932  0.8350259946535272  0.7549580545335299  1.0000
  H   H17       1.0  0.9264389674158405  0.6680962365255656  0.6333340647904779  1.0000
  H   H18       1.0  0.08509349464910243  0.42351273320474503  0.5570388561088797  1.0000
  H   H19       1.0  0.8355563679201252  0.874329420940107  0.15089676056492451  1.0000
  H   H20       1.0  0.8030096855511863  0.9535288593606555  0.9789676005152788  1.0000
  H   H21       1.0  0.7005438764304491  0.7561905687726495  0.9590135197807639  1.0000
  H   H22       1.0  0.7322731872121013  0.676673194996502  0.13325311773122772  1.0000
  H   H23       1.0  0.6124162409253894  0.8305738557141256  0.14066428427581168  1.0000
  H   H24       1.0  0.6892370526750158  0.8851735776258911  0.24261763853200755  1.0000
  Zn  Zn1       1.0  0.8805978856969459  0.5555173500183707  0.4083732366070014  1.0000
  Zn  Zn2       1.0  0.0601373950899633  0.5530939297459421  0.40560365822066213  1.0000
  C   C29       1.0  0.9715208544105173  0.5502942984957916  0.6701971836066045  1.0000
  C   C30       1.0  0.9692163799403308  0.5583187750692526  0.14377983627149904  1.0000
  C   C31       1.0  0.9692415430609803  0.8176188437141723  0.4032462740962579  1.0000
  C   C32       1.0  0.9714956375986018  0.29099249880436945  0.41073081040753423  1.0000
  O   O1        1.0  0.037571210035890916  0.5596744637232304  0.1964447084078491  1.0000
  O   O2        1.0  0.03943236045491291  0.5470981994280602  0.6154298423781412  1.0000
  O   O3        1.0  0.03759087564799435  0.7629661727337178  0.39986511978816686  1.0000
  O   O4        1.0  0.039412633072301695  0.3438065008480353  0.4120093239495606  1.0000
  O   O5        1.0  0.9013225864465454  0.7648047797447917  0.40196757181565457  1.0000
  O   O6        1.0  0.9031640636766685  0.5489385383141512  0.6175322307174917  1.0000
  O   O7        1.0  0.9013029061028026  0.5615147409563586  0.19854536343696383  1.0000
  O   O8        1.0  0.9031443296416588  0.3456467684792154  0.4141100869644905  1.0000
