data_image0
_chemical_formula_structural       NC8NC6H8C13OH12C13OH12Zn2C4O8
_chemical_formula_sum              "N2 C44 H32 O10 Zn2"
_cell_length_a       17.457602349358154
_cell_length_b       10.299150109392551
_cell_length_c       10.299153481560893
_cell_angle_alpha    85.56204594622189
_cell_angle_beta     92.89209155736368
_cell_angle_gamma    91.67070309183428

_space_group_name_H-M_alt    "P 1"
_space_group_IT_number       1

loop_
  _space_group_symop_operation_xyz
  'x, y, z'

loop_
  _atom_site_type_symbol
  _atom_site_label
  _atom_site_symmetry_multiplicity
  _atom_site_fract_x
  _atom_site_fract_y
  _atom_site_fract_z
  _atom_site_occupancy
  N   N1        1.0  0.7219121703121848  0.45239008493757593  0.6259220029537695  1.0000
  C   C1        1.0  0.660841114936401  0.40645766921080884  0.6153234097178804  1.0000
  C   C2        1.0  0.5848661395800259  0.3493234625454803  0.6021482997624175  1.0000
  C   C3        1.0  0.526342829558518  0.3895173350388854  0.6770326064864873  1.0000
  C   C4        1.0  0.4518056412831237  0.33450177207637877  0.6644711474951832  1.0000
  C   C5        1.0  0.3896917732025705  0.376940675187349  0.7437765168622337  1.0000
  C   C6        1.0  0.3151319746027789  0.39538843868804063  0.6880046457015798  1.0000
  C   C7        1.0  0.2566087152721575  0.4353984158630124  0.7629969784057786  1.0000
  C   C8        1.0  0.1806102637663946  0.4544512040092385  0.7050093625139862  1.0000
  N   N2        1.0  0.11952042649926858  0.4697632656189582  0.6583874728044012  1.0000
  C   C9        1.0  0.27215313355215404  0.45720398644196514  0.8942696202666017  1.0000
  C   C10       1.0  0.3459282213054532  0.4391453872962811  0.9504289517444937  1.0000
  C   C11       1.0  0.40443992062329  0.3993156557787716  0.8758942833924883  1.0000
  C   C12       1.0  0.4370802898572855  0.23861431066321193  0.5755926834742306  1.0000
  C   C13       1.0  0.49559189796207365  0.19869929339953463  0.5011082843451631  1.0000
  C   C14       1.0  0.5693443942531378  0.2538274549818089  0.5142196640675394  1.0000
  H   H1        1.0  0.5386841153961279  0.46474276354961186  0.7436364767900852  1.0000
  H   H2        1.0  0.30277219096561714  0.3803771795952574  0.5859833324948598  1.0000
  H   H3        1.0  0.22729646618272303  0.4881118629885647  0.9530952043475862  1.0000
  H   H4        1.0  0.35777393398598245  0.45571426357976996  0.05207640540156256  1.0000
  H   H5        1.0  0.4609363423613233  0.38434092663301955  0.9220075438629253  1.0000
  H   H6        1.0  0.38060239441839155  0.19327158794426255  0.5649577491632911  1.0000
  H   H7        1.0  0.48376400316721113  0.12458993061155585  0.43330564063692845  1.0000
  H   H8        1.0  0.6142013587819415  0.2220500232848757  0.45590554682146894  1.0000
  C   C15       1.0  0.920792299756442  0.07968038992865778  0.6423050708696252  1.0000
  C   C16       1.0  0.9194027178696635  0.06786675978384003  0.7790031133042334  1.0000
  C   C17       1.0  0.918631369011091  0.9447393809235237  0.8480427719903497  1.0000
  C   C18       1.0  0.9192547353384073  0.8326048128877289  0.7786276332039522  1.0000
  C   C19       1.0  0.9206476333282075  0.8424632141160239  0.6420162609962377  1.0000
  C   C20       1.0  0.9214103856412971  0.9664614536599254  0.5746534984023288  1.0000
  C   C21       1.0  0.9171546440633753  0.9332233233740688  0.9925631311067445  1.0000
  C   C22       1.0  0.8699903770799104  0.8383077700387437  0.056733875598934946  1.0000
  C   C23       1.0  0.8685753623972224  0.8275514700786626  0.19272531366626044  1.0000
  C   C24       1.0  0.9148022410204377  0.9105738768592251  0.26704551805335797  1.0000
  C   C25       1.0  0.9612326113809598  0.006411238593181379  0.20345742475377016  1.0000
  C   C26       1.0  0.9626654350863459  0.01734411362652888  0.0674671521119844  1.0000
  C   C27       1.0  0.9116685076998947  0.9012992397435615  0.4128767417478174  1.0000
  O   O1        1.0  0.8543328457404562  0.9819844957296577  0.44843606100202693  1.0000
  H   H9        1.0  0.9229167597025204  0.3092502274408708  0.38424041128729614  1.0000
  H   H10       1.0  0.9178534786874607  0.1545909800994192  0.8318854928533653  1.0000
  H   H11       1.0  0.9197015870617082  0.7375202105833122  0.8314979337107161  1.0000
  H   H12       1.0  0.9224825986046465  0.9747816472248149  0.46928088202144136  1.0000
  H   H13       1.0  0.921131752074366  0.5187773766763226  0.5894665196246547  1.0000
  H   H14       1.0  0.8332907365430191  0.7736775232034296  0.0016282913547919235  1.0000
  H   H15       1.0  0.8312630544843127  0.7546089679525051  0.24005454009580537  1.0000
  H   H16       1.0  0.9965191856047786  0.07253297136340175  0.2591938394366209  1.0000
  H   H17       1.0  3.5878476543089134e-06  0.09073345743292346  0.02094668379810117  1.0000
  H   H18       1.0  0.9681091729560403  0.9316084619642442  0.4576554626479005  1.0000
  H   H19       1.0  0.8992070680029609  0.7987465461502501  0.4496720378590083  1.0000
  H   H20       1.0  0.8546336883806169  0.972353861112984  0.5450878537857253  1.0000
  C   C28       1.0  0.9206541034498338  0.46092150436737794  0.26078277985906784  1.0000
  C   C29       1.0  0.8413383790504202  0.43307373803762483  0.2549868372158002  1.0000
  C   C30       1.0  0.8012627670729163  0.4191231935727659  0.13489191577886572  1.0000
  C   C31       1.0  0.8415193290410935  0.43339896836229297  0.019693529278723473  1.0000
  C   C32       1.0  0.9207858455341706  0.4612221486271466  0.02353851477566016  1.0000
  C   C33       1.0  0.9598903919422027  0.4748173489526939  0.14457887168604233  1.0000
  C   C34       1.0  0.7174064833167635  0.3896943291818973  0.1297372428213548  1.0000
  C   C35       1.0  0.6688715512701037  0.45281552426610205  0.03308295156789898  1.0000
  C   C36       1.0  0.5899578297120907  0.42516517162968304  0.028310038234466765  1.0000
  C   C37       1.0  0.5582509768997541  0.3330604054177795  0.1192140669881143  1.0000
  C   C38       1.0  0.6062710166523909  0.2710130784790916  0.21674444843462104  1.0000
  C   C39       1.0  0.6851883834269744  0.29863394067367377  0.22169581983482844  1.0000
  C   C40       1.0  0.4732347296598342  0.3060571863211259  0.11619719042172115  1.0000
  O   O2        1.0  0.43875870509579534  0.3921457174183413  0.19285752236689224  1.0000
  H   H21       1.0  0.0702687352354372  0.5143109736137663  0.4789429967008449  1.0000
  H   H22       1.0  0.810408794301956  0.42395798142722096  0.3439397787559133  1.0000
  H   H23       1.0  0.8110817291372137  0.4210158869127267  0.9270331371755013  1.0000
  H   H24       1.0  0.021030612181134112  0.4962818281689405  0.14826040949918085  1.0000
  H   H25       1.0  0.9512643694647258  0.47200940086121873  0.6975345181825814  1.0000
  H   H26       1.0  0.6917918611879975  0.5250788064913774  0.9623708911879566  1.0000
  H   H27       1.0  0.5535469553794704  0.4758586405636829  0.9538371991017747  1.0000
  H   H28       1.0  0.5826428417926204  0.20092543619072287  0.2888377894022247  1.0000
  H   H29       1.0  0.7211382046626974  0.24771981043539504  0.29665429940250854  1.0000
  H   H30       1.0  0.4610774152852792  0.2037305815154664  0.15406037978198772  1.0000
  H   H31       1.0  0.4489481253691142  0.31836233309165807  0.014078427798503768  1.0000
  H   H32       1.0  0.3829906746595645  0.37035386242354185  0.1876076042087873  1.0000
  Zn  Zn1       1.0  0.8366533262245565  0.45740012960274756  0.6352983362234512  1.0000
  Zn  Zn2       1.0  0.0047792601927993976  0.46474257655667395  0.6490217763441368  1.0000
  C   C41       1.0  0.9207601985439138  0.4559911928984124  0.879363179210426  1.0000
  C   C42       1.0  0.9206742235146287  0.4661532322283424  0.40495721006562885  1.0000
  C   C43       1.0  0.9206701349593702  0.6982788498925029  0.6368952181198031  1.0000
  C   C44       1.0  0.9207642300374436  0.223864012340935  0.6474252363045185  1.0000
  O   O3        1.0  0.9844838928120778  0.47068980209427735  0.4585514420436494  1.0000
  O   O4        1.0  0.984554223080318  0.4570263904373108  0.836184347261403  1.0000
  O   O5        1.0  0.9844806357361788  0.652676700575662  0.6403896824613176  1.0000
  O   O6        1.0  0.9845574227676458  0.2750394987029574  0.6543460047803806  1.0000
  O   O7        1.0  0.8568751062765789  0.6471032049522586  0.6299741030972388  1.0000
  O   O8        1.0  0.8569486933093153  0.4514544552030183  0.8257686980590891  1.0000
  O   O9        1.0  0.8568783628310304  0.4651178209875366  0.44813423142526826  1.0000
  O   O10       1.0  0.8569518928020381  0.26946750834498  0.6439288915353858  1.0000
