data_image0
_chemical_formula_structural       NC8NH4C6ClH5C6ClH4Zn2C4O8
_chemical_formula_sum              "N2 C24 H13 Cl2 Zn2 O8"
_cell_length_a       13.859017124695912
_cell_length_b       9.276545438789551
_cell_length_c       9.276548810779735
_cell_angle_alpha    86.11252841497436
_cell_angle_beta     89.72475413929395
_cell_angle_gamma    89.40963735980037

_space_group_name_H-M_alt    "P 1"
_space_group_IT_number       1

loop_
  _space_group_symop_operation_xyz
  'x, y, z'

loop_
  _atom_site_type_symbol
  _atom_site_label
  _atom_site_symmetry_multiplicity
  _atom_site_fract_x
  _atom_site_fract_y
  _atom_site_fract_z
  _atom_site_occupancy
  N   N1        1.0  0.9029139367179637  0.563557208028798  0.4114706982567171  1.0000
  C   C1        1.0  0.8309011812685987  0.5401886561865061  0.3553095533714501  1.0000
  C   C2        1.0  0.7413215626744898  0.5111215882309654  0.28545230724271486  1.0000
  C   C3        1.0  0.6532919528565478  0.5394590234769012  0.3535543335332929  1.0000
  C   C4        1.0  0.566091236257868  0.5111228085989397  0.28545172882205305  1.0000
  C   C5        1.0  0.5671026586675436  0.4544414689195408  0.1492261939947106  1.0000
  C   C6        1.0  0.6549481141398732  0.42621295072177623  0.08138631053678491  1.0000
  C   C7        1.0  0.7419680298863323  0.45443913053913737  0.14922737064203995  1.0000
  C   C8        1.0  0.4756613377914624  0.5401895780673218  0.3553090560354216  1.0000
  N   N2        1.0  0.4029650607889191  0.563557528623013  0.4114704824961175  1.0000
  H   H1        1.0  0.652650284948289  0.5833325760601831  0.4589961616655463  1.0000
  H   H2        1.0  0.5001334154182877  0.432138818971431  0.09562244541065557  1.0000
  H   H3        1.0  0.6555885434120731  0.38242900029417526  0.9761580203555735  1.0000
  H   H4        1.0  0.8095896555982378  0.4321343892714749  0.09562461977851511  1.0000
  C   C9        1.0  0.1558569870760087  0.14012007392868006  0.4112330609220065  1.0000
  C   C10       1.0  0.15664898079389666  0.22255735195493376  0.27823189034676044  1.0000
  C   C11       1.0  0.14865323532069175  0.15629019089441898  0.14812551728391932  1.0000
  C   C12       1.0  0.13967269545581917  0.006707195659857004  0.14901866019883636  1.0000
  C   C13       1.0  0.14037718837371105  0.9227092168742537  0.2795785920442082  1.0000
  C   C14       1.0  0.1500312998314648  0.9869837483811198  0.4117206077712352  1.0000
  Cl  Cl1       1.0  0.14843348963195213  0.2614097815785399  0.9836180507537248  1.0000
  H   H5        1.0  0.2044784852100423  0.4051473307048681  0.6377816818574529  1.0000
  H   H6        1.0  0.16117934092818742  0.33925187588463945  0.27537896230426906  1.0000
  H   H7        1.0  0.13306473005993702  0.9550666668709475  0.048360601308811826  1.0000
  H   H8        1.0  0.13566844838491865  0.8064245583843634  0.27692888511343816  1.0000
  H   H9        1.0  0.11693822659107678  0.6903753315094993  0.6447289489593939  1.0000
  C   C15       1.0  0.15433072877951748  0.5596888185140956  0.9883252498139719  1.0000
  C   C16       1.0  0.23489268065119284  0.6145018606973665  0.05746324521235757  1.0000
  C   C17       1.0  0.3099689755798795  0.6800620118469702  0.9772684858190233  1.0000
  C   C18       1.0  0.3056085294340157  0.6919126304077574  0.8268357838086033  1.0000
  C   C19       1.0  0.2271559471182658  0.6360881368528151  0.756048098970818  1.0000
  C   C20       1.0  0.1515575107550251  0.5674149052510022  0.8346284360078244  1.0000
  Cl  Cl2       1.0  0.4091047250644706  0.7494925054087953  0.06581288323440804  1.0000
  H   H10       1.0  0.0383697197461057  0.39829348261570163  0.2812345230954727  1.0000
  H   H11       1.0  0.3635124927366493  0.743208308969594  0.7643760359307112  1.0000
  H   H12       1.0  0.22675042237192877  0.6436120124981937  0.6390041394079637  1.0000
  H   H13       1.0  0.9969265661959246  0.514549712114146  0.5580019651534497  1.0000
  Zn  Zn1       1.0  0.04721789163627622  0.563553526743725  0.4114789595312358  1.0000
  Zn  Zn2       1.0  0.25866114042356503  0.5635495552685457  0.4114740331220975  1.0000
  C   C21       1.0  0.15211909049383057  0.5602101740460266  0.6746556804175405  1.0000
  C   C22       1.0  0.15376223754049922  0.5668947285882042  0.14829745466103494  1.0000
  C   C23       1.0  0.15114630952384722  0.8268560322936127  0.4058862784245621  1.0000
  C   C24       1.0  0.15473495802552106  0.30024713862524544  0.4170669324827466  1.0000
  O   O1        1.0  0.23381310093137375  0.5693052999577528  0.2019837148037258  1.0000
  O   O2        1.0  0.23254876931112567  0.5577954968370773  0.6209652658135731  1.0000
  O   O3        1.0  0.23176214977030218  0.7731154132681177  0.40393207300447953  1.0000
  O   O4        1.0  0.2345996486040196  0.35398539285673003  0.41901679957743165  1.0000
  O   O5        1.0  0.07127931130063248  0.7731176891583971  0.40393619307000384  1.0000
  O   O6        1.0  0.07206591917122784  0.5577995044455852  0.6209693100444671  1.0000
  O   O7        1.0  0.07333025687831962  0.5693092415019606  0.20198602653841746  1.0000
  O   O8        1.0  0.0741168042639533  0.35398932507377623  0.4190192193416138  1.0000
