data_image0
_chemical_formula_structural       NC12NC2H8C6NCSNH8C12H10Zn2C4O8
_chemical_formula_sum              "N4 C37 H26 S1 Zn2 O8"
_cell_length_a       17.80743265337812
_cell_length_b       9.275078345756787
_cell_length_c       10.299141136925906
_cell_angle_alpha    85.3652753601135
_cell_angle_beta     91.556080336852
_cell_angle_gamma    90.00966593732542

_space_group_name_H-M_alt    "P 1"
_space_group_IT_number       1

loop_
  _space_group_symop_operation_xyz
  'x, y, z'

loop_
  _atom_site_type_symbol
  _atom_site_label
  _atom_site_symmetry_multiplicity
  _atom_site_fract_x
  _atom_site_fract_y
  _atom_site_fract_z
  _atom_site_occupancy
  N   N1        1.0  0.71519351031851  0.5627737580992876  0.5972650153266919  1.0000
  C   C1        1.0  0.664527973166839  0.5956241745112768  0.5284785063097588  1.0000
  C   C2        1.0  0.6014950198083755  0.6364877069048678  0.4429167436810046  1.0000
  C   C3        1.0  0.613503404065001  0.696524357652804  0.3161365207775393  1.0000
  C   C4        1.0  0.5523697047207587  0.7357171892463664  0.2329751402405755  1.0000
  C   C5        1.0  0.479074682212127  0.715166187657835  0.27593329532935873  1.0000
  C   C6        1.0  0.4660889487156142  0.6549974472501969  0.40318202491195443  1.0000
  C   C7        1.0  0.5280799790813171  0.6158082345629556  0.4863268835680057  1.0000
  C   C8        1.0  0.38821996716629376  0.633208171228917  0.4490037976884577  1.0000
  C   C9        1.0  0.36961987423354953  0.6633655764336654  0.5759787516018269  1.0000
  C   C10       1.0  0.29629515423717695  0.6428607369780241  0.6189773543351647  1.0000
  C   C11       1.0  0.2406262901970222  0.5919158330487988  0.5358397411907352  1.0000
  C   C12       1.0  0.1651621115699139  0.5707965737896262  0.5802409194632958  1.0000
  N   N2        1.0  0.1044942556500343  0.5538181097359636  0.6159364123727341  1.0000
  C   C13       1.0  0.2585340449598463  0.5615706616965535  0.40940826722505497  1.0000
  C   C14       1.0  0.3318059353103074  0.582091998495982  0.36615372040237637  1.0000
  H   H1        1.0  0.6700462975930133  0.7129988077681877  0.28165551607406925  1.0000
  H   H2        1.0  0.5617870689120996  0.7825019162882703  0.13507109151776087  1.0000
  H   H3        1.0  0.4325904611942817  0.7481007730563194  0.210254700208254  1.0000
  H   H4        1.0  0.5193530069031492  0.5674849266298101  0.5841104014442182  1.0000
  H   H5        1.0  0.41152525623849023  0.7046400368145521  0.6414504990609327  1.0000
  H   H6        1.0  0.2830001912222026  0.6670949572156284  0.7169302217158637  1.0000
  H   H7        1.0  0.21591916389066604  0.5217036087738598  0.3443459108480902  1.0000
  H   H8        1.0  0.3445637491483368  0.5561522058094852  0.268508554078035  1.0000
  C   C15       1.0  0.9076534015489917  0.13472197818678258  0.6076955634204193  1.0000
  C   C16       1.0  0.8829628443241744  0.2180814209240945  0.49461127492685536  1.0000
  C   C17       1.0  0.8657555040075134  0.15341414569407055  0.3798767593245844  1.0000
  C   C18       1.0  0.8736678725391303  0.003660111756299764  0.37499821839312264  1.0000
  C   C19       1.0  0.895644086003154  0.9188745162698772  0.4883122804117439  1.0000
  C   C20       1.0  0.9120414901876074  0.9818586689722784  0.6055173987012368  1.0000
  N   N3        1.0  0.8552247007205671  0.9346896817963779  0.2582313417968196  1.0000
  C   C21       1.0  0.8648955718960352  0.001035182781654154  0.1289580528513279  1.0000
  S   S1        1.0  0.8157924349079683  0.9422839719254129  0.007389983877630788  1.0000
  N   N4        1.0  0.9226345444896629  0.10570164930426798  0.10261884544395583  1.0000
  H   H9        1.0  0.9124803085808121  0.3966746483253538  0.8225381188143381  1.0000
  H   H10       1.0  0.8782773693812242  0.3345786417142902  0.4941006515243249  1.0000
  H   H11       1.0  0.8460468231830923  0.220581415294201  0.29496838941364456  1.0000
  H   H12       1.0  0.8987584508693708  0.8025203086381328  0.48515243602367986  1.0000
  H   H13       1.0  0.9778835394546395  0.6843216269379762  0.7909201714167537  1.0000
  H   H14       1.0  0.8340395020385023  0.8293489206236222  0.26793287561832213  1.0000
  H   H15       1.0  0.9613250777235698  0.13083947972840848  0.17526632253454633  1.0000
  H   H16       1.0  0.929197449148654  0.15385030117037826  0.00841571294119259  1.0000
  C   C22       1.0  0.9097627053539304  0.5584153781498464  0.22520908535065254  1.0000
  C   C23       1.0  0.988306886526004  0.572144768372084  0.22711711183929492  1.0000
  C   C24       1.0  0.02821917237683147  0.5789776160051485  0.11095538140002703  1.0000
  C   C25       1.0  0.9885256008380253  0.5718957935592952  0.9918625848005589  1.0000
  C   C26       1.0  0.90993221822489  0.5581652428630908  0.9880039379373975  1.0000
  C   C27       1.0  0.8710346915821222  0.5515072024168712  0.10514601211489859  1.0000
  C   C28       1.0  0.1113110226880123  0.5935037464896894  0.11401864039711616  1.0000
  C   C29       1.0  0.155607812057446  0.5136001847613458  0.034142183551671305  1.0000
  C   C30       1.0  0.2338130260482982  0.5274524762469835  0.037262662214035736  1.0000
  C   C31       1.0  0.26862294551940136  0.6210007354802182  0.11982429066066858  1.0000
  C   C32       1.0  0.22529808807847984  0.7008915075357429  0.1995026547885663  1.0000
  C   C33       1.0  0.14707506297267225  0.6874013064556976  0.19685011861293544  1.0000
  H   H17       1.0  0.8795459164168333  0.5532076753099692  0.5519453829654748  1.0000
  H   H18       1.0  0.018724512306008464  0.5755631091228394  0.319316758338962  1.0000
  H   H19       1.0  0.018904624311745888  0.5790963202659534  0.9018714970734365  1.0000
  H   H20       1.0  0.8104515914374973  0.5409214221321847  0.10295837354763693  1.0000
  H   H21       1.0  0.7615472431706305  0.5331656930786157  0.7733609528388943  1.0000
  H   H22       1.0  0.12986126881399196  0.4391051583638939  0.9706076710554749  1.0000
  H   H23       1.0  0.2674637881942681  0.4652954931679299  0.9758210352150392  1.0000
  H   H24       1.0  0.32916581123910205  0.6315830121376187  0.12205880486724552  1.0000
  H   H25       1.0  0.2523259345292471  0.7736543437128685  0.26318363157371194  1.0000
  H   H26       1.0  0.11451878910353906  0.7517048925036725  0.25823399072465847  1.0000
  Zn  Zn1       1.0  0.8275372811167843  0.5601854979853724  0.6026606745831817  1.0000
  Zn  Zn2       1.0  0.9921504237658528  0.5563946005702166  0.6105513772107187  1.0000
  C   C34       1.0  0.9098687164557283  0.5524663326277419  0.8438340459495475  1.0000
  C   C35       1.0  0.909820795452879  0.5641155444503052  0.36937821480712185  1.0000
  C   C36       1.0  0.9112070390676257  0.8217335713000682  0.6007533986691311  1.0000
  C   C37       1.0  0.9084824077087318  0.2948465740722141  0.6124589330945791  1.0000
  O   O1        1.0  0.9723100881715278  0.5645836537676006  0.420757188358136  1.0000
  O   O2        1.0  0.9723169843992996  0.5491199318648572  0.7984435620382454  1.0000
  O   O3        1.0  0.9733968550106927  0.7665566513922968  0.6021541752995527  1.0000
  O   O4        1.0  0.9712301614206299  0.34714694588401435  0.617046474995792  1.0000
  O   O5        1.0  0.8484574872876273  0.7694331539667948  0.5961655740985634  1.0000
  O   O6        1.0  0.8473776256341038  0.5519981674403405  0.7924548871306701  1.0000
  O   O7        1.0  0.8473707288489641  0.567461839589665  0.4147669520648396  1.0000
  O   O8        1.0  0.8462908020631909  0.3500251213574459  0.6110563361039874  1.0000
