data_image0
_chemical_formula_structural       NC12NC2H8C6NCOH7C9H10Zn2C4O8
_chemical_formula_sum              "N3 C34 H25 O9 Zn2"
_cell_length_a       19.240039667572717
_cell_length_b       9.27373018362039
_cell_length_c       10.297187173949778
_cell_angle_alpha    85.71383111101245
_cell_angle_beta     89.97407950640248
_cell_angle_gamma    90.59426011834398

_space_group_name_H-M_alt    "P 1"
_space_group_IT_number       1

loop_
  _space_group_symop_operation_xyz
  'x, y, z'

loop_
  _atom_site_type_symbol
  _atom_site_label
  _atom_site_symmetry_multiplicity
  _atom_site_fract_x
  _atom_site_fract_y
  _atom_site_fract_z
  _atom_site_occupancy
  N   N1        1.0  0.6627123247728491  0.5781073281792035  0.5708118920224519  1.0000
  C   C1        1.0  0.6025639564415212  0.5781074214278817  0.5708118102847273  1.0000
  C   C2        1.0  0.5277459199845498  0.5781075516532997  0.5708116732532187  1.0000
  C   C3        1.0  0.4908893952175435  0.5065335292189375  0.6740796600127432  1.0000
  C   C4        1.0  0.41821801073595055  0.5064104093198223  0.6741659343682496  1.0000
  C   C5        1.0  0.3814136856160218  0.5781076544158443  0.5708114457608557  1.0000
  C   C6        1.0  0.4189850398742379  0.6498051071799356  0.4674571522210216  1.0000
  C   C7        1.0  0.4916550906195727  0.6496817257801247  0.4675435484945507  1.0000
  C   C8        1.0  0.3042085947628101  0.5781075670526121  0.5708113501206165  1.0000
  C   C9        1.0  0.26638198626448806  0.4523396332542377  0.6123979690406613  1.0000
  C   C10       1.0  0.19371191331909537  0.4524583317296347  0.6123069003334236  1.0000
  C   C11       1.0  0.1578763071078901  0.578107423617098  0.5708114107097748  1.0000
  C   C12       1.0  0.0830582692615139  0.5781072973398087  0.5708116591308152  1.0000
  N   N2        1.0  0.022909952132469998  0.5781072520324835  0.5708118674903904  1.0000
  C   C13       1.0  0.19498821218697557  0.7037565997025419  0.5293158683801027  1.0000
  C   C14       1.0  0.2676595248826834  0.7038754981772128  0.5292246375089553  1.0000
  H   H1        1.0  0.518307717051449  0.45111944926414993  0.7547094640167915  1.0000
  H   H2        1.0  0.39083232039764343  0.45188272226212395  0.7559135583086027  1.0000
  H   H3        1.0  0.3921841995868612  0.7043328242722822  0.38570947749109363  1.0000
  H   H4        1.0  0.5196665396255977  0.7050956944305684  0.3869140200870571  1.0000
  H   H5        1.0  0.2929728505243759  0.35333876930064934  0.6433415312882111  1.0000
  H   H6        1.0  0.1654994020676262  0.35445611369499114  0.6442859861112828  1.0000
  H   H7        1.0  0.16777089985094168  0.8017587904914594  0.4973367970923326  1.0000
  H   H8        1.0  0.2952551398903119  0.8028764500487916  0.49828103068507645  1.0000
  C   C15       1.0  0.8406915471850362  0.1546065556673619  0.5698454119139931  1.0000
  C   C16       1.0  0.8509125062956427  0.23807764243065452  0.4514343574746336  1.0000
  C   C17       1.0  0.8664769730362646  0.17325448730286785  0.3364921244511878  1.0000
  C   C18       1.0  0.8740238063608682  0.022799719065514253  0.34085485057474685  1.0000
  C   C19       1.0  0.8630240208796366  0.9381584713458847  0.4569295725709488  1.0000
  C   C20       1.0  0.8449373633343449  0.0015969994497462316  0.5717895609385473  1.0000
  N   N3        1.0  0.8782537495064437  0.26301540425498476  0.21834169852046517  1.0000
  C   C21       1.0  0.8609232810273947  0.22204317330373957  0.09073188653561326  1.0000
  O   O1        1.0  0.8251985356330624  0.11013954709433803  0.0749574996788338  1.0000
  H   H9        1.0  0.8515096502056203  0.23127966820604648  0.8890592284417933  1.0000
  H   H10       1.0  0.8478209857712771  0.3549038571461434  0.44856945365636425  1.0000
  H   H11       1.0  0.8891267893036611  0.9702939732704011  0.2550105538291201  1.0000
  H   H12       1.0  0.8674966272440113  0.8218668657514692  0.456217189545276  1.0000
  H   H13       1.0  0.8492428231722052  0.7028084283343117  0.7865807816188474  1.0000
  H   H14       1.0  0.8962985460620999  0.3687898108714954  0.22547658171388685  1.0000
  H   H15       1.0  0.8770861694641672  0.29064564775138635  0.0062876058796161914  1.0000
  C   C22       1.0  0.8429060696377829  0.5780496257657759  0.1893641933644712  1.0000
  C   C23       1.0  0.7726692721186476  0.6176613190379017  0.18597321658087296  1.0000
  C   C24       1.0  0.7366848893671062  0.6379553151705393  0.0676195149013521  1.0000
  C   C25       1.0  0.7723969970033023  0.6178143202122408  0.9507508427298553  1.0000
  C   C26       1.0  0.8427228295634834  0.5781539141708698  0.9522707424607643  1.0000
  C   C27       1.0  0.877518105076179  0.558529143175631  0.0719669837657897  1.0000
  C   C28       1.0  0.6607187289570807  0.6807978974872426  0.07338410046609511  1.0000
  C   C29       1.0  0.6117692189596835  0.6227916688307116  0.9729791213901371  1.0000
  C   C30       1.0  0.6332343761694391  0.781894739413933  0.9622448091448352  1.0000
  H   H16       1.0  0.8699724968999456  0.5627990576325109  0.5182082859399904  1.0000
  H   H17       1.0  0.7455540699851966  0.6329539672675462  0.2760864725350536  1.0000
  H   H18       1.0  0.7460341893798583  0.6326789162314224  0.858177865924183  1.0000
  H   H19       1.0  0.9317071296790306  0.5279671723186978  0.07385584469682871  1.0000
  H   H20       1.0  0.9755457961982005  0.5032281207624049  0.7479262141429603  1.0000
  H   H21       1.0  0.6363020750507262  0.6945694473034527  0.16949299692431574  1.0000
  H   H22       1.0  0.6349807360281453  0.5576991326209297  0.8983047274387204  1.0000
  H   H23       1.0  0.5576528239049534  0.6032780396082411  0.008052919352938616  1.0000
  H   H24       1.0  0.6694851424899708  0.8134484383803229  0.8810508354435483  1.0000
  H   H25       1.0  0.5916628026264686  0.8553702841154016  0.9910424581367723  1.0000
  Zn  Zn1       1.0  0.7666575674037335  0.5781034569863028  0.570819366187787  1.0000
  Zn  Zn2       1.0  0.9189646667566607  0.5780993608765501  0.570814967567731  1.0000
  C   C31       1.0  0.8427271088864098  0.5723889362853392  0.8080518788226031  1.0000
  C   C32       1.0  0.8428967975536827  0.5838157011967076  0.33358258655618833  1.0000
  C   C33       1.0  0.8441324647439787  0.8414970334137385  0.5662457262696332  1.0000
  C   C34       1.0  0.8414913810221375  0.31470587140176537  0.5753888043875659  1.0000
  O   O2        1.0  0.9006934046679793  0.5857430026671284  0.38198191306788565  1.0000
  O   O3        1.0  0.9005280606706948  0.5704574379536959  0.7596488374341273  1.0000
  O   O4        1.0  0.901662123806122  0.7877656299268104  0.5643886618933671  1.0000
  O   O5        1.0  0.8995592896355655  0.3684348209986631  0.5772419912376192  1.0000
  O   O6        1.0  0.7860628925498999  0.7877679968671567  0.5643923425125703  1.0000
  O   O7        1.0  0.7849288381135204  0.5704615375635517  0.7596524527695949  1.0000
  O   O8        1.0  0.785094182280234  0.5857470518079224  0.381983966541934  1.0000
  O   O9        1.0  0.7839600671698783  0.36843885983777436  0.5772441420773666  1.0000
