data_image0
_chemical_formula_structural       NC11NC3H8C13OH12C13NH9Zn2C4O8
_chemical_formula_sum              "N3 C44 H29 O9 Zn2"
_cell_length_a       17.807433833752565
_cell_length_b       10.299150109392551
_cell_length_c       10.298528502251457
_cell_angle_alpha    85.52101086159662
_cell_angle_beta     88.52196449538943
_cell_angle_gamma    90.66566965777596

_space_group_name_H-M_alt    "P 1"
_space_group_IT_number       1

loop_
  _space_group_symop_operation_xyz
  'x, y, z'

loop_
  _atom_site_type_symbol
  _atom_site_label
  _atom_site_symmetry_multiplicity
  _atom_site_fract_x
  _atom_site_fract_y
  _atom_site_fract_z
  _atom_site_occupancy
  N   N1        1.0  0.7071850181074729  0.4390728125958205  0.5339875836443002  1.0000
  C   C1        1.0  0.6563702180379953  0.4043212543611034  0.6005697911411629  1.0000
  C   C2        1.0  0.5931514808212914  0.36109318144260666  0.6833895609806095  1.0000
  C   C3        1.0  0.6048871323241976  0.2974972196108936  0.806144429847049  1.0000
  C   C4        1.0  0.5435755373283444  0.2559498097027204  0.8866794228396209  1.0000
  C   C5        1.0  0.4703739843083823  0.2776848555528886  0.8451005266159243  1.0000
  C   C6        1.0  0.45766152303453195  0.3414355342142359  0.7218853525602111  1.0000
  C   C7        1.0  0.3798915780373712  0.3645017278857828  0.6775250173250187  1.0000
  C   C8        1.0  0.3611145739788235  0.34767161535522484  0.5479348025771347  1.0000
  C   C9        1.0  0.287883086789828  0.3693679451213703  0.5063118427246998  1.0000
  C   C10       1.0  0.23248549261920942  0.4082132127579645  0.5934586161650515  1.0000
  C   C11       1.0  0.1571171981477265  0.43056851136795476  0.5504739736622293  1.0000
  N   N2        1.0  0.09652646305945559  0.44854051065671324  0.515917449515237  1.0000
  C   C12       1.0  0.2505709082750509  0.42525409540610815  0.722517561119201  1.0000
  C   C13       1.0  0.32374963342597013  0.40352274763095086  0.7643959929497319  1.0000
  C   C14       1.0  0.519830430325276  0.3829783733646544  0.6413667789283266  1.0000
  H   H1        1.0  0.6613552634033752  0.28007030800593324  0.8395199231319486  1.0000
  H   H2        1.0  0.5527802805515968  0.20646222769394337  0.981443826313895  1.0000
  H   H3        1.0  0.4237394390784806  0.24310508206941028  0.908559015965132  1.0000
  H   H4        1.0  0.40280061965255143  0.3160504838445264  0.4792208015553845  1.0000
  H   H5        1.0  0.27444683869840614  0.3555196818383961  0.4062700071780514  1.0000
  H   H6        1.0  0.20816831956922283  0.4556522842488642  0.7907171485465907  1.0000
  H   H7        1.0  0.3366571674166572  0.418916592644156  0.864254525383722  1.0000
  H   H8        1.0  0.5113239057454116  0.43382832773362257  0.5468362553419579  1.0000
  C   C15       1.0  0.9019301329581099  0.06240877494704898  0.5250931838030304  1.0000
  C   C16       1.0  0.9005424837951229  0.05052385028137918  0.6619850284747242  1.0000
  C   C17       1.0  0.8997735557196493  0.9273618424328463  0.7311314062717551  1.0000
  C   C18       1.0  0.9003976496273224  0.8152651084089412  0.6616283111677166  1.0000
  C   C19       1.0  0.9017885289221559  0.8251946757536133  0.5248227261035636  1.0000
  C   C20       1.0  0.9025487086170584  0.9492265022028813  0.45735454776856255  1.0000
  C   C21       1.0  0.8982990325364413  0.9157705618379524  0.8758576270414529  1.0000
  C   C22       1.0  0.8521019706701662  0.8217435692163748  0.9460314530923057  1.0000
  C   C23       1.0  0.8506895563198309  0.8109169898192996  0.08221983737243133  1.0000
  C   C24       1.0  0.8959414148214565  0.8929692809362008  0.15067350965102455  1.0000
  C   C25       1.0  0.9414197121469009  0.9879322090513187  0.08117569312124984  1.0000
  C   C26       1.0  0.9428495653032176  0.998935009642144  0.9449862107196003  1.0000
  C   C27       1.0  0.8928440497401638  0.8836513206174287  0.296921380956395  1.0000
  O   O1        1.0  0.8366925441197666  0.9654474575584566  0.3397730668216381  1.0000
  H   H9        1.0  0.9040613080579217  0.29212309447181445  0.266726064817713  1.0000
  H   H10       1.0  0.8990150100437658  0.13724054478430794  0.7150709744372079  1.0000
  H   H11       1.0  0.9008247998547882  0.7201334195532653  0.71444845473293  1.0000
  H   H12       1.0  0.903619409637243  0.9576016314864524  0.35183240512408376  1.0000
  H   H13       1.0  0.9022729448450927  0.5015372380052113  0.47220484688485875  1.0000
  H   H14       1.0  0.8161756331898812  0.7578806816890885  0.8955838137537797  1.0000
  H   H15       1.0  0.814143095119218  0.7386799256982249  0.13429775334922478  1.0000
  H   H16       1.0  0.9759622158292135  0.053314138280184054  0.1324338561043319  1.0000
  H   H17       1.0  0.9794211750538855  0.07161781832800362  0.8937138693405993  1.0000
  H   H18       1.0  0.9481033219226566  0.912809314619256  0.3345315905702415  1.0000
  H   H19       1.0  0.8806342492154011  0.781319050948738  0.33530526528404914  1.0000
  H   H20       1.0  0.8369680915452314  0.9557409741576433  0.43639876205305506  1.0000
  C   C28       1.0  0.9018699862684847  0.4439284923865889  0.14354052819733454  1.0000
  C   C29       1.0  0.8237645150123634  0.4618927189966042  0.14466826332956573  1.0000
  C   C30       1.0  0.7841956190980441  0.47085528347741157  0.02809289520908398  1.0000
  C   C31       1.0  0.8237421380894887  0.46162729431521643  0.9094096944806851  1.0000
  C   C32       1.0  0.9018486763499616  0.44367497424460933  0.9063753285689055  1.0000
  C   C33       1.0  0.9404124603123217  0.4349377690144647  0.023930746192734498  1.0000
  C   C34       1.0  0.7016224273664751  0.4898413607848582  0.030292811837191895  1.0000
  C   C35       1.0  0.6684366043840613  0.5769724404760892  0.11271714714022463  1.0000
  C   C36       1.0  0.5907105524434878  0.5947969917130547  0.11466846293068889  1.0000
  C   C37       1.0  0.545136076194747  0.5258247844540329  0.034459268888175514  1.0000
  C   C38       1.0  0.5775803810745159  0.4389120263376762  0.9521732704742267  1.0000
  C   C39       1.0  0.6552984312683  0.42099290836388703  0.9499857501056357  1.0000
  C   C40       1.0  0.4651170151037003  0.5442258770619124  0.03658879683891825  1.0000
  N   N3        1.0  0.40078708576710526  0.5590192377001542  0.03830082869709739  1.0000
  H   H21       1.0  0.049396613765720236  0.4091732273658062  0.3488000598295693  1.0000
  H   H22       1.0  0.7934231977492887  0.4671632074990677  0.2365899107827076  1.0000
  H   H23       1.0  0.7936827900057978  0.4702442957420956  0.8190974546200716  1.0000
  H   H24       1.0  0.0006098559042260207  0.4210971054685715  0.022326698187222105  1.0000
  H   H25       1.0  0.049513815355201926  0.41056599105482333  0.6932498944682743  1.0000
  H   H26       1.0  0.7026943754135468  0.6325781440852778  0.17441029816420373  1.0000
  H   H27       1.0  0.5662066166330535  0.6625968912651399  0.17848794577044003  1.0000
  H   H28       1.0  0.5428030956251013  0.38474396673222916  0.8899319757912162  1.0000
  H   H29       1.0  0.6790649575342379  0.35204479907716824  0.8867476826325823  1.0000
  Zn  Zn1       1.0  0.8195405491172536  0.4418015083517717  0.5287804199739132  1.0000
  Zn  Zn2       1.0  0.9841709189649009  0.44580119098178494  0.5211352043114033  1.0000
  C   C41       1.0  0.9018519866139773  0.4385488070629951  0.7621851541147082  1.0000
  C   C42       1.0  0.9018612789189164  0.44905557464901696  0.2877305135866617  1.0000
  C   C43       1.0  0.9018115721720223  0.6810135682901481  0.5196981797026601  1.0000
  C   C44       1.0  0.9019016374717773  0.20658925161260355  0.5302175604082406  1.0000
  O   O2        1.0  0.9643347250835345  0.4522884628333177  0.33322067238375386  1.0000
  O   O3        1.0  0.9643291820686037  0.4383506057756272  0.7108920799818719  1.0000
  O   O4        1.0  0.9642957046465683  0.63414394594173  0.5150821711414437  1.0000
  O   O5        1.0  0.9643681463293726  0.25649513062568463  0.5290304864426301  1.0000
  O   O6        1.0  0.8393432655725163  0.6311075673443927  0.5208851404447907  1.0000
  O   O7        1.0  0.83937674270338  0.43531578762407025  0.7166949794777919  1.0000
  O   O8        1.0  0.8393822858203053  0.44925359994247377  0.3390220102941448  1.0000
  O   O9        1.0  0.8394157070620751  0.2534602584128913  0.5348319217366779  1.0000
