data_image0
_chemical_formula_structural       NC6NCNCH5C6NH5C6NH7Zn2C4O8
_chemical_formula_sum              "N5 C24 H17 Zn2 O8"
_cell_length_a       14.933214217465613
_cell_length_b       9.274771166103582
_cell_length_c       9.274774538082516
_cell_angle_alpha    84.9550519661537
_cell_angle_beta     90.31607823643775
_cell_angle_gamma    90.63112361825276

_space_group_name_H-M_alt    "P 1"
_space_group_IT_number       1

loop_
  _space_group_symop_operation_xyz
  'x, y, z'

loop_
  _atom_site_type_symbol
  _atom_site_label
  _atom_site_symmetry_multiplicity
  _atom_site_fract_x
  _atom_site_fract_y
  _atom_site_fract_z
  _atom_site_occupancy
  N   N1        1.0  0.8474965465471687  0.5934324341195224  0.40425355593520584  1.0000
  C   C1        1.0  0.7700090265997294  0.594438066063127  0.40325998900671367  1.0000
  C   C2        1.0  0.6736140015411558  0.5956918333508299  0.4020211340828802  1.0000
  C   C3        1.0  0.6255264113459688  0.499068754945902  0.4975041236579641  1.0000
  C   C4        1.0  0.5319959628540698  0.5001613534781  0.4964244463785888  1.0000
  C   C5        1.0  0.4856505998236436  0.5978216701621244  0.39991649362669635  1.0000
  C   C6        1.0  0.3890692767547067  0.5956940087593459  0.4020190567114963  1.0000
  N   N2        1.0  0.31157879886101575  0.5939190723397023  0.40377268518283027  1.0000
  C   C7        1.0  0.5338402798878381  0.6956648334558282  0.303227942443556  1.0000
  N   N3        1.0  0.4888051029049636  0.7971714173450946  0.20291933897111636  1.0000
  C   C8        1.0  0.627848431616216  0.6935974238412497  0.3052710734116444  1.0000
  H   H1        1.0  0.6603164846196469  0.42288795612673774  0.5727859965044598  1.0000
  H   H2        1.0  0.49570677544902914  0.4246214005254784  0.5710729081145289  1.0000
  H   H3        1.0  0.5253559701490479  0.868865123325439  0.1320715311714351  1.0000
  H   H4        1.0  0.4190783394474981  0.8025724328166675  0.19758212280504517  1.0000
  H   H5        1.0  0.6652599844592725  0.768377321995392  0.23137353528567275  1.0000
  C   C9        1.0  0.07679565445421656  0.17006945943699736  0.40480265145632965  1.0000
  C   C10       1.0  0.05570734731932927  0.2544796264403897  0.2757595393066665  1.0000
  C   C11       1.0  0.04297678964284746  0.19054754791096462  0.14588890643442864  1.0000
  C   C12       1.0  0.051377971300239134  0.04083606435810827  0.14412058004709283  1.0000
  C   C13       1.0  0.07080375120641837  0.9551201600423345  0.2713924395250331  1.0000
  C   C14       1.0  0.0822882384882464  0.017270844405738783  0.4032361475916446  1.0000
  N   N4        1.0  0.02243336482966175  0.2780701324311232  0.015426731014493546  1.0000
  H   H6        1.0  0.17875480614969075  0.24708706514959972  0.7205586798681691  1.0000
  H   H7        1.0  0.04200692082646973  0.9902089412099929  0.04419779160243278  1.0000
  H   H8        1.0  0.14734038723025122  0.7184020279137061  0.6180665179056495  1.0000
  H   H9        1.0  0.016263405390349206  0.39013797236511305  0.015386246898527972  1.0000
  H   H10       1.0  0.013155482554022548  0.23143965294080246  0.9178773617627374  1.0000
  C   C15       1.0  0.07795877894825082  0.5973579145260787  0.9801979127110854  1.0000
  C   C16       1.0  0.14196304867935472  0.6825504532667799  0.046711272722237636  1.0000
  C   C17       1.0  0.20990769962499692  0.7558645465538003  0.9657410158020636  1.0000
  C   C18       1.0  0.21439667967549447  0.7443188590790544  0.8167802295274784  1.0000
  C   C19       1.0  0.1507003104513207  0.6623043547729125  0.7485581334178762  1.0000
  C   C20       1.0  0.08112509213333885  0.589982313284944  0.82784085307118  1.0000
  N   N5        1.0  0.2749386919563509  0.8408574768306873  0.035258926878154684  1.0000
  H   H11       1.0  0.9422774138444131  0.31522968919123756  0.10677833242245405  1.0000
  H   H12       1.0  0.14039548577630523  0.6893902549190993  0.16272042181051763  1.0000
  H   H13       1.0  0.26684976375910785  0.8001067824130671  0.7530924299437141  1.0000
  H   H14       1.0  0.1546674407980304  0.6582959948686942  0.6323883659583882  1.0000
  H   H15       1.0  0.9870171893171235  0.4043476060159591  0.5621984053126292  1.0000
  H   H16       1.0  0.2723969457926372  0.8499007598271698  0.1466148173735773  1.0000
  H   H17       1.0  0.326091910830842  0.8955096713018724  0.9758632486871559  1.0000
  Zn  Zn1       1.0  0.9814206665141132  0.5935689241727231  0.40412313734852845  1.0000
  Zn  Zn2       1.0  0.1776546317819403  0.5937706450906917  0.40391497771890195  1.0000
  C   C21       1.0  0.08048734199111768  0.5856298159330842  0.6676288170417193  1.0000
  C   C22       1.0  0.07859011150293971  0.6017115744002264  0.14040943404266093  1.0000
  C   C23       1.0  0.0812239194209996  0.857181756568247  0.39778097772466814  1.0000
  C   C24       1.0  0.07785345616346806  0.3301578999177661  0.41025735358139626  1.0000
  O   O1        1.0  0.15327171881257684  0.6032429612296404  0.1940989002938751  1.0000
  O   O2        1.0  0.15474276516775698  0.5842504459993836  0.6137809489991422  1.0000
  O   O3        1.0  0.15533656247537675  0.8035320582153467  0.3958769078238645  1.0000
  O   O4        1.0  0.15267785420627086  0.38396136020557337  0.41200283330705245  1.0000
  O   O5        1.0  0.006397377124742972  0.8033782089906405  0.3960352818238181  1.0000
  O   O6        1.0  0.005803590761673579  0.5840983305547733  0.6139392428408514  1.0000
  O   O7        1.0  0.004332537658375826  0.6030908106154607  0.19425545901851904  1.0000
  O   O8        1.0  0.0037386733857160954  0.38380919833229665  0.41215950025723735  1.0000
