data_image0
_chemical_formula_structural       NC8NH4C6ClH5C6IH3Zn2C4O8
_chemical_formula_sum              "N2 C24 H12 Cl1 I1 Zn2 O8"
_cell_length_a       11.048855714531884
_cell_length_b       9.276545438789551
_cell_length_c       9.275433903346869
_cell_angle_alpha    86.20108945286073
_cell_angle_beta     89.9656283209417
_cell_angle_gamma    89.40961225544244

_space_group_name_H-M_alt    "P 1"
_space_group_IT_number       1

loop_
  _space_group_symop_operation_xyz
  'x, y, z'

loop_
  _atom_site_type_symbol
  _atom_site_label
  _atom_site_symmetry_multiplicity
  _atom_site_fract_x
  _atom_site_fract_y
  _atom_site_fract_z
  _atom_site_occupancy
  N   N1        1.0  0.12697466918645772  0.5611634880426553  0.41145855007629883  1.0000
  C   C1        1.0  0.07301524198244395  0.5023173935367329  0.3264617437856354  1.0000
  C   C2        1.0  0.005690518458599582  0.4288942414936118  0.2204097204262361  1.0000
  C   C3        1.0  0.877973764659918  0.4288940520188487  0.22040982200722747  1.0000
  C   C4        1.0  0.8158841012174355  0.3563119925017215  0.11557295716420546  1.0000
  C   C5        1.0  0.8799850824017922  0.2843040566816406  0.011565271560455727  1.0000
  C   C6        1.0  0.006391295760527214  0.2843039468086497  0.011565294153089717  1.0000
  C   C7        1.0  0.06914163919899474  0.35631209063354863  0.11557292951404506  1.0000
  C   C8        1.0  0.8092718202638213  0.5023174683231639  0.32646173070104156  1.0000
  N   N2        1.0  0.7542085549392552  0.5611635310161174  0.4114585788842722  1.0000
  H   H1        1.0  0.7178303849981083  0.3554030897289553  0.11425950590382605  1.0000
  H   H2        1.0  0.8316110434914974  0.22845302677904966  0.93089510478379  1.0000
  H   H3        1.0  0.05581308377232586  0.22845313618492022  0.930895104239538  1.0000
  H   H4        1.0  0.16721239702091253  0.35540304361234054  0.11425978091338918  1.0000
  C   C9        1.0  0.4442503165500343  0.1377258230298608  0.41122102151771966  1.0000
  C   C10       1.0  0.4447760496882612  0.219962735645129  0.27821880109980457  1.0000
  C   C11       1.0  0.4342891531173634  0.15349957616313326  0.14811139720758737  1.0000
  C   C12       1.0  0.4230276471113139  0.003917932578203057  0.14900454324621148  1.0000
  C   C13       1.0  0.42437043184488865  0.9201166404800099  0.2795655063126663  1.0000
  C   C14       1.0  0.43694464082748674  0.9845902359490203  0.4117085696681553  1.0000
  Cl  Cl1       1.0  0.4334350302036176  0.2583713382232451  0.9836026316155994  1.0000
  H   H5        1.0  0.5060348404305152  0.40309433969100933  0.6377714525713076  1.0000
  H   H6        1.0  0.45044862751428094  0.3366529585716367  0.2753658525121909  1.0000
  H   H7        1.0  0.4143850524429502  0.9521257679957835  0.04834568666043149  1.0000
  H   H8        1.0  0.4184547551994942  0.8038279934533423  0.2769157763996868  1.0000
  H   H9        1.0  0.39625405792866375  0.6883328663241585  0.6447187362341051  1.0000
  C   C15       1.0  0.44084872353059  0.5566574624734373  0.9883098704241178  1.0000
  C   C16       1.0  0.5523607670360541  0.5539579906578054  0.061763182914696735  1.0000
  C   C17       1.0  0.6613023026843191  0.5645459346597632  0.9856505382628012  1.0000
  C   C18       1.0  0.6604753945250679  0.5781699946218222  0.8351127379160084  1.0000
  C   C19       1.0  0.5510328037234948  0.5786899054202916  0.7601376492427985  1.0000
  C   C20       1.0  0.44034619241963924  0.5656585106866201  0.8346196757093165  1.0000
  I   I1        1.0  0.8271006783255661  0.5626317488847192  0.09843383134815586  1.0000
  H   H10       1.0  0.1516017596292727  0.6420832065534179  0.08584865712646517  1.0000
  H   H11       1.0  0.7448107362585615  0.5869844963794912  0.7759068814970691  1.0000
  H   H12       1.0  0.24505622409016112  0.6171086972777489  0.5501737669989208  1.0000
  Zn  Zn1       1.0  0.307980862415826  0.5611597205554089  0.41146687454329745  1.0000
  Zn  Zn2       1.0  0.5732024838625953  0.5611555971138231  0.41146204059328273  1.0000
  C   C21       1.0  0.4404880452107659  0.5582127691179777  0.6746457193866298  1.0000
  C   C22       1.0  0.4406981815001979  0.564104369386207  0.14828333817732164  1.0000
  C   C23       1.0  0.438322725330231  0.8244537297432661  0.4058741947408684  1.0000
  C   C24       1.0  0.4428634257787012  0.2978616771598219  0.4170549386523881  1.0000
  O   O1        1.0  0.5412979356132133  0.5665957638203993  0.20197005725059647  1.0000
  O   O2        1.0  0.5411853745957342  0.5557171528795501  0.6209549160231373  1.0000
  O   O3        1.0  0.5394354937051653  0.7707101116179523  0.403920009156433  1.0000
  O   O4        1.0  0.5430477259767773  0.3516028142493095  0.41900485608102844  1.0000
  O   O5        1.0  0.33813552979451234  0.7707125034228186  0.4039240590496229  1.0000
  O   O6        1.0  0.3398853957799813  0.555721276288409  0.6209588900810925  1.0000
  O   O7        1.0  0.3399979583401412  0.5665998185549668  0.2019722987986714  1.0000
  O   O8        1.0  0.3417477487235783  0.3516068598194608  0.41900720565944694  1.0000
