data_image0
_chemical_formula_structural       NC12NC2H8C6NH7C7F3H5Zn2C4O8
_chemical_formula_sum              "N3 C31 H20 F3 Zn2 O8"
_cell_length_a       19.240039667572717
_cell_length_b       9.274771166103584
_cell_length_c       10.299327507215196
_cell_angle_alpha    85.44807283694688
_cell_angle_beta     89.98118748846025
_cell_angle_gamma    90.59704977044065

_space_group_name_H-M_alt    "P 1"
_space_group_IT_number       1

loop_
  _space_group_symop_operation_xyz
  'x, y, z'

loop_
  _atom_site_type_symbol
  _atom_site_label
  _atom_site_symmetry_multiplicity
  _atom_site_fract_x
  _atom_site_fract_y
  _atom_site_fract_z
  _atom_site_occupancy
  N   N1        1.0  0.6626603425650921  0.5788806500920975  0.5648408536265521  1.0000
  C   C1        1.0  0.6025119742308684  0.5788807433856833  0.5648407715354979  1.0000
  C   C2        1.0  0.5276939377683676  0.5788808736804589  0.564840634014833  1.0000
  C   C3        1.0  0.4908422671833719  0.507260616610399  0.6683722378196981  1.0000
  C   C4        1.0  0.41817088511920886  0.507137443701922  0.6684589827415829  1.0000
  C   C5        1.0  0.3813617033877257  0.5788809765323831  0.5648404061588079  1.0000
  C   C6        1.0  0.4189282010524262  0.6506247170214552  0.4612220237861415  1.0000
  C   C7        1.0  0.4915982542163429  0.650501282517495  0.46130889163698585  1.0000
  C   C8        1.0  0.30415661252604415  0.5788808891770709  0.5648403108818281  1.0000
  C   C9        1.0  0.2663294512391192  0.45307231699548156  0.6069163274990574  1.0000
  C   C10       1.0  0.19365937545061776  0.4531910688677403  0.6068248066012829  1.0000
  C   C11       1.0  0.1578243248713483  0.5788807456913894  0.564840372026671  1.0000
  C   C12       1.0  0.0830062870378365  0.5788806193133038  0.5648406209004133  1.0000
  N   N2        1.0  0.022857969921150294  0.5788805739352032  0.5648408294001022  1.0000
  C   C13       1.0  0.1949367855811251  0.7045705067474435  0.5228558844230509  1.0000
  C   C14       1.0  0.2676080954283676  0.704689458711478  0.5227642006010864  1.0000
  H   H1        1.0  0.5182643912239665  0.4518105441474112  0.7492060127486171  1.0000
  H   H2        1.0  0.3907890924990342  0.4525736409731688  0.75040686435766  1.0000
  H   H3        1.0  0.3921234630443956  0.705188549806423  0.3792740912712631  1.0000
  H   H4        1.0  0.5196059010306949  0.7059512435708557  0.3804753926930482  1.0000
  H   H5        1.0  0.292919763985316  0.3540399839509394  0.6382454648065263  1.0000
  H   H6        1.0  0.16544640575668718  0.35515730796565226  0.6391853258375575  1.0000
  H   H7        1.0  0.16771993168778868  0.8026042403934115  0.49049537978186053  1.0000
  H   H8        1.0  0.2952042619490667  0.8037218797069194  0.49143501837807735  1.0000
  C   C15       1.0  0.8406285478385999  0.15528396672303257  0.5655487199767374  1.0000
  C   C16       1.0  0.82465539898409  0.23861056051828664  0.4494082611752057  1.0000
  C   C17       1.0  0.8151716245435389  0.17357912955881494  0.3325309404121255  1.0000
  C   C18       1.0  0.8216975847773806  0.02384376183577918  0.33094752507964253  1.0000
  C   C19       1.0  0.8363857823156332  0.9391979851856078  0.4454925537206243  1.0000
  C   C20       1.0  0.8448963909057847  0.002466220716870193  0.5641442053112402  1.0000
  N   N3        1.0  0.7996257226984304  0.2600054173560278  0.2151140305712418  1.0000
  H   H9        1.0  0.9187986044943074  0.23490061177710042  0.8497801469648512  1.0000
  H   H10       1.0  0.8211510519703914  0.35520334566541  0.4489093816631726  1.0000
  H   H11       1.0  0.8147297324517351  0.9723703534700912  0.24102221848042404  1.0000
  H   H12       1.0  0.839449441329934  0.8230345408354443  0.44177304302329157  1.0000
  H   H13       1.0  0.894729705787561  0.7053701972476845  0.7575222133717722  1.0000
  H   H14       1.0  0.7948370490884515  0.3720793256546246  0.21507184876103302  1.0000
  H   H15       1.0  0.7927229270937406  0.21254888862629803  0.12732455701529966  1.0000
  C   C21       1.0  0.842829317267598  0.5789336653167072  0.18346477023678442  1.0000
  C   C22       1.0  0.9106622513331699  0.6367720937697088  0.1780983968511192  1.0000
  C   C23       1.0  0.9443861092377617  0.6683976710073039  0.058090965737911615  1.0000
  C   C24       1.0  0.9104867111256724  0.6366191295265091  0.9428611928215216  1.0000
  C   C25       1.0  0.8426956333670628  0.5788165084314985  0.9462281407898523  1.0000
  C   C26       1.0  0.8091595508819406  0.5508437562416466  0.06700208256042252  1.0000
  C   C27       1.0  0.018134276589560006  0.7255989417740691  0.05373378494270354  1.0000
  F   F1        1.0  0.030699157417502173  0.8098348320816391  0.156485291382487  1.0000
  F   F2        1.0  0.06346424939396654  0.6105896394479173  0.061793408822230056  1.0000
  F   F3        1.0  0.030508121221365588  0.809815260962107  0.9388419201941376  1.0000
  H   H16       1.0  0.7152799604363943  0.46737408401647396  0.40100183797416333  1.0000
  H   H17       1.0  0.9374184518016712  0.6570604786386556  0.2674612867593438  1.0000
  H   H18       1.0  0.9371224865989116  0.6567987116208032  0.8504477002230174  1.0000
  H   H19       1.0  0.7568769290585958  0.5062680227468848  0.07033326094512106  1.0000
  H   H20       1.0  0.817074940917616  0.554226532509033  0.6202373834300663  1.0000
  Zn  Zn1       1.0  0.7666055855811652  0.578876775850236  0.5648483416965508  1.0000
  Zn  Zn2       1.0  0.9189126845425242  0.5788726800869963  0.5648439600922577  1.0000
  C   C28       1.0  0.8426903835479473  0.5730920907798678  0.8020590471536506  1.0000
  C   C29       1.0  0.8428295589110546  0.5846591851516467  0.327633379040555  1.0000
  C   C30       1.0  0.8440869989469699  0.8423315055953421  0.5592343212292443  1.0000
  C   C31       1.0  0.8414328827974769  0.31541803725713247  0.5704581770806583  1.0000
  O   O1        1.0  0.90062935860695  0.5865728745002139  0.3760160287889176  1.0000
  O   O2        1.0  0.9004881424008567  0.5711742046952233  0.7536726998145977  1.0000
  O   O3        1.0  0.9016151475931802  0.7885884369693406  0.5575900131411902  1.0000
  O   O4        1.0  0.8995023015115838  0.3691586525613524  0.5720986180687861  1.0000
  O   O5        1.0  0.7860159166371767  0.7885908033788491  0.5575936837146835  1.0000
  O   O6        1.0  0.7848889201844798  0.5711783041867406  0.7536762982670566  1.0000
  O   O7        1.0  0.7850301364572799  0.5865769239646005  0.37601806587176867  1.0000
  O   O8        1.0  0.7839030792900276  0.3691626916934525  0.572100752539838  1.0000
