data_image0
_chemical_formula_structural       NC9NC5H8C7ONH7C8NH11Zn2C4O8
_chemical_formula_sum              "N4 C33 H26 O9 Zn2"
_cell_length_a       17.807436237873137
_cell_length_b       10.297852080636378
_cell_length_c       9.275652972338538
_cell_angle_alpha    85.93999439630132
_cell_angle_beta     89.8368236096327
_cell_angle_gamma    88.36921327777658

_space_group_name_H-M_alt    "P 1"
_space_group_IT_number       1

loop_
  _space_group_symop_operation_xyz
  'x, y, z'

loop_
  _atom_site_type_symbol
  _atom_site_label
  _atom_site_symmetry_multiplicity
  _atom_site_fract_x
  _atom_site_fract_y
  _atom_site_fract_z
  _atom_site_occupancy
  N   N1        1.0  0.7007951157119192  0.3787467905521326  0.39869603245386775  1.0000
  C   C1        1.0  0.6401666625342005  0.34347966343246594  0.3864617438770084  1.0000
  C   C2        1.0  0.5647515303457066  0.2996112410052625  0.3712436172721929  1.0000
  C   C3        1.0  0.5462148769045102  0.22750831712349331  0.2547113874101521  1.0000
  C   C4        1.0  0.4729903367331275  0.18480341042879145  0.23984386635994026  1.0000
  C   C5        1.0  0.41725366861531743  0.21382361883024223  0.3414725611162057  1.0000
  C   C6        1.0  0.3394351940459258  0.16855476696336671  0.32576332255563556  1.0000
  C   C7        1.0  0.2773553522324079  0.2504928599837899  0.35455020003486437  1.0000
  C   C8        1.0  0.2039886098467091  0.20758496507081903  0.3396978627834262  1.0000
  C   C9        1.0  0.140859707649988  0.2922172515110928  0.3688885944089846  1.0000
  N   N2        1.0  0.0901170566204376  0.36025576163218326  0.3923571363917653  1.0000
  C   C10       1.0  0.19211810753597466  0.08248078605282583  0.2960305154266416  1.0000
  C   C11       1.0  0.2533405456651888  0.000528784250389381  0.267234327073141  1.0000
  C   C12       1.0  0.326587051220592  0.043040763243883166  0.28186188765923853  1.0000
  C   C13       1.0  0.4364825835526742  0.2864224098787811  0.45824809140638184  1.0000
  C   C14       1.0  0.5097593528334627  0.3289358867029805  0.4729428713155801  1.0000
  H   H1        1.0  0.588300191960203  0.2045582293122041  0.17512445745537186  1.0000
  H   H2        1.0  0.4597256110432023  0.13057844182147793  0.14781867654812864  1.0000
  H   H3        1.0  0.28595890333982277  0.3481614681774725  0.3865977662573441  1.0000
  H   H4        1.0  0.135613797852475  0.048370314615326704  0.28427237312808185  1.0000
  H   H5        1.0  0.24403321583470908  0.9036727178785791  0.23385453966056516  1.0000
  H   H6        1.0  0.3731582119847763  0.9771610759459277  0.26072208975017297  1.0000
  H   H7        1.0  0.3951199361983356  0.3088416629814494  0.5392716599508869  1.0000
  H   H8        1.0  0.5235476058023067  0.38437497817286204  0.5638120583824517  1.0000
  C   C15       1.0  0.8955397900948426  0.9880602220820276  0.3955338480089632  1.0000
  C   C16       1.0  0.8846638820852473  0.997214046601285  0.24513652483374826  1.0000
  C   C17       1.0  0.8784861008173499  0.884794894158678  0.16900651693935775  1.0000
  C   C18       1.0  0.8844737691723205  0.7619705696090182  0.24508989579079277  1.0000
  C   C19       1.0  0.8953795802355395  0.7509320995478084  0.3955316641077753  1.0000
  C   C20       1.0  0.9006635963358519  0.8645023893776832  0.46980769514336257  1.0000
  C   C21       1.0  0.8671852140724955  0.8970548574979815  0.010134446529072692  1.0000
  O   O1        1.0  0.8869718209663153  0.9987908362249528  0.9380365002885634  1.0000
  N   N3        1.0  0.8333289639837739  0.796408589400418  0.936268646843433  1.0000
  H   H9        1.0  0.9163670168821052  0.1780195831479574  0.6797039756023446  1.0000
  H   H10       1.0  0.8803189502601216  0.09220001989200322  0.1871066075936998  1.0000
  H   H11       1.0  0.8821204670499017  0.6745368686317903  0.18731914476818767  1.0000
  H   H12       1.0  0.9090439198673362  0.8566939629267772  0.585720811346641  1.0000
  H   H13       1.0  0.9171939692870748  0.5227546313215218  0.6795543775346027  1.0000
  H   H14       1.0  0.8290993068663662  0.8050076498241043  0.8237206229712561  1.0000
  H   H15       1.0  0.807892901993442  0.7178117029942951  0.9920665340535364  1.0000
  C   C22       1.0  0.893787840658031  0.36704397140870126  0.9722892817135224  1.0000
  C   C23       1.0  0.8450433666031807  0.4543248415220735  0.039229526359084284  1.0000
  C   C24       1.0  0.8022288966986514  0.5489036466890631  0.9572259998511918  1.0000
  C   C25       1.0  0.8071444163871714  0.5549983941496937  0.8063605509785772  1.0000
  C   C26       1.0  0.8542348277662004  0.4678539042015466  0.7380391596304854  1.0000
  C   C27       1.0  0.8971315807470287  0.37194835614583965  0.8187762722467928  1.0000
  C   C28       1.0  0.7494842960141459  0.6402726967895007  0.03062794732918838  1.0000
  C   C29       1.0  0.6722560141062711  0.5804758622433861  0.052673111016821254  1.0000
  N   N4        1.0  0.6212861931360852  0.6706767414948926  0.12171033433291822  1.0000
  H   H16       1.0  0.9488917573338909  0.17144099743378027  0.26800053321002903  1.0000
  H   H17       1.0  0.8414707514858708  0.4508806786467481  0.15611524790668962  1.0000
  H   H18       1.0  0.7738188222464873  0.626545319024371  0.7413195150526826  1.0000
  H   H19       1.0  0.8555899560175602  0.47336812652995386  0.6209971875040994  1.0000
  H   H20       1.0  0.00017860706693761602  0.2480858907461465  0.546619089402478  1.0000
  H   H21       1.0  0.7730058049187072  0.6619790308290225  0.13695913636847123  1.0000
  H   H22       1.0  0.7434504236359947  0.7343370398938076  0.964416109129744  1.0000
  H   H23       1.0  0.6487738241209116  0.5598113056914777  0.9459241209532849  1.0000
  H   H24       1.0  0.677578547663362  0.4871926046355248  0.12077970198614209  1.0000
  H   H25       1.0  0.5682352564717581  0.6295772718178745  0.1269771948361893  1.0000
  H   H26       1.0  0.63887605861496  0.6763426422088705  0.228543828677328  1.0000
  Zn  Zn1       1.0  0.8131450505022054  0.37340726138771546  0.39687509947055727  1.0000
  Zn  Zn2       1.0  0.9777671526606961  0.3655847712737684  0.39418991831641104  1.0000
  C   C30       1.0  0.8964989332043921  0.36584673999029554  0.658772154611828  1.0000
  C   C31       1.0  0.8944150678414093  0.373146846998454  0.13229297531082443  1.0000
  C   C32       1.0  0.8953833323052823  0.6066999817015073  0.3897887720547568  1.0000
  C   C33       1.0  0.8955306131977142  0.132292047804496  0.4012764356296048  1.0000
  O   O2        1.0  0.9570988020376651  0.37222076675453986  0.18497266429565284  1.0000
  O   O3        1.0  0.9587595640171495  0.36083474892650175  0.6040540603700019  1.0000
  O   O4        1.0  0.957857865933246  0.5553268363142494  0.38684808958630446  1.0000
  O   O5        1.0  0.9580004435183705  0.17772869070193864  0.402178527929117  1.0000
  O   O6        1.0  0.8329117034670566  0.5612633446303474  0.3888864907665904  1.0000
  O   O7        1.0  0.8338134009162906  0.3667728173961475  0.6060923846973176  1.0000
  O   O8        1.0  0.8321526321513498  0.3781587799175504  0.1870092557786598  1.0000
  O   O9        1.0  0.8330542740577789  0.18366669520060497  0.4042152274710964  1.0000
