data_image0
_chemical_formula_structural       NC8NH4C6ClH5C8H10Zn2C4O8
_chemical_formula_sum              "N2 C26 H19 Cl1 Zn2 O8"
_cell_length_a       11.048855714531884
_cell_length_b       9.276545438789551
_cell_length_c       9.275657083861812
_cell_angle_alpha    85.88220868425292
_cell_angle_beta     89.50283887802443
_cell_angle_gamma    89.40961225544244

_space_group_name_H-M_alt    "P 1"
_space_group_IT_number       1

loop_
  _space_group_symop_operation_xyz
  'x, y, z'

loop_
  _atom_site_type_symbol
  _atom_site_label
  _atom_site_symmetry_multiplicity
  _atom_site_fract_x
  _atom_site_fract_y
  _atom_site_fract_z
  _atom_site_occupancy
  N   N1        1.0  0.13767528122058637  0.5698986082873376  0.4108345811675287  1.0000
  C   C1        1.0  0.0842884030352338  0.5115198968159584  0.32580438867565986  1.0000
  C   C2        1.0  0.017678059081061903  0.4386799068781011  0.21971070876062493  1.0000
  C   C3        1.0  0.8899613045981178  0.43867971684476115  0.2197108103815164  1.0000
  C   C4        1.0  0.828577835266978  0.36667413748213296  0.11483276628934225  1.0000
  C   C5        1.0  0.8933794251085828  0.29523812230042323  0.010784227132735864  1.0000
  C   C6        1.0  0.01978563831513092  0.29523801230319924  0.010784249734244527  1.0000
  C   C7        1.0  0.08183537343479211  0.36667423576600333  0.11483273862832123  1.0000
  C   C8        1.0  0.8205449814047503  0.5115199716743397  0.32580437558592656  1.0000
  N   N2        1.0  0.7649091667793295  0.5698986511023896  0.41083460998681787  1.0000
  H   H1        1.0  0.7305329666180833  0.36577245715527473  0.1135187991137192  1.0000
  H   H2        1.0  0.8455487904370924  0.23983068397486448  0.930082373631159  1.0000
  H   H3        1.0  0.06975083072158705  0.23983079338372779  0.9300823730866932  1.0000
  H   H4        1.0  0.1799149767883892  0.36577240952642875  0.11351907423130436  1.0000
  C   C9        1.0  0.4549525286059644  0.14646224940383634  0.4105969593092531  1.0000
  C   C10       1.0  0.4563741811805011  0.2294305186911105  0.2775424964708822  1.0000
  C   C11       1.0  0.44676370420311473  0.1636827977755917  0.14738398722360269  1.0000
  C   C12       1.0  0.4354961818546839  0.01409624293194423  0.1482774840842711  1.0000
  C   C13       1.0  0.43595949176395143  0.9295770182222338  0.2788897306609279  1.0000
  C   C14       1.0  0.44764356869866595  0.9933239813783346  0.4110846989654797  1.0000
  Cl  Cl1       1.0  0.44701773271777384  0.2694591656606373  0.982810603641977  1.0000
  H   H5        1.0  0.5152109807122489  0.4105850036350313  0.6372363779213668  1.0000
  H   H6        1.0  0.4620659768216998  0.34613642949845125  0.2746884272633332  1.0000
  H   H7        1.0  0.4275316377163678  0.9628575843446067  0.04757908934422717  1.0000
  H   H8        1.0  0.4300616640275641  0.8133029416113441  0.27623895995100667  1.0000
  H   H9        1.0  0.40538340044684534  0.6957853283325807  0.6441863904326974  1.0000
  C   C15       1.0  0.4543997175008837  0.5677194056022932  0.9875196914237554  1.0000
  C   C16       1.0  0.5161457725423586  0.6776376834269109  0.052523376633008434  1.0000
  C   C17       1.0  0.5671516842480882  0.7937274731497521  0.9688516494139213  1.0000
  C   C18       1.0  0.558216304642706  0.7989152440852292  0.8182157502904057  1.0000
  C   C19       1.0  0.4990787574607174  0.6896425592128927  0.7517598331308943  1.0000
  C   C20       1.0  0.4481963451592752  0.5720667687497338  0.8341619814123358  1.0000
  C   C21       1.0  0.634444022045355  0.909357996445604  0.040118142584804506  1.0000
  C   C22       1.0  0.7677397277542867  0.8682120751882352  0.05793906420777462  1.0000
  H   H10       1.0  0.40205809004518245  0.3376865408599196  0.2852142648170388  1.0000
  H   H11       1.0  0.5224266075085429  0.67496437614412  0.16924686316698967  1.0000
  H   H12       1.0  0.5982583338713023  0.8870458038052733  0.7518802751985612  1.0000
  H   H13       1.0  0.4959157193874425  0.6952618734396445  0.6347887489269972  1.0000
  H   H14       1.0  0.30672949916949843  0.40588240840121526  0.5662318753575684  1.0000
  H   H15       1.0  0.6269123163664165  0.01403827814115433  0.9743381198179386  1.0000
  H   H16       1.0  0.5940480979350111  0.9256886694172372  0.14800404096479758  1.0000
  H   H17       1.0  0.7772410388307849  0.7656345961809348  0.12662817467522536  1.0000
  H   H18       1.0  0.8104462277004472  0.8549412442853864  0.9507566097885096  1.0000
  H   H19       1.0  0.8156645300427104  0.9547699233579344  0.11055552331080222  1.0000
  Zn  Zn1       1.0  0.3186814183753136  0.569894795025258  0.4108429089043246  1.0000
  Zn  Zn2       1.0  0.5839030723841693  0.5698906981647442  0.4108380730555654  1.0000
  C   C23       1.0  0.4494157958623437  0.5655006677173611  0.6741251287125571  1.0000
  C   C24       1.0  0.45317157437027245  0.5742866455244093  0.1475559957306487  1.0000
  C   C25       1.0  0.44906095427382575  0.8332195574116332  0.40524803233308404  1.0000
  C   C26       1.0  0.4535263398459635  0.30656602381206816  0.41643316796921237  1.0000
  O   O1        1.0  0.5534096880915841  0.5764828257879735  0.2012638026033744  1.0000
  O   O2        1.0  0.5504747931513012  0.5633002881083817  0.6204132359453312  1.0000
  O   O3        1.0  0.5501868862849892  0.7794866850216993  0.40329307915706525  1.0000
  O   O4        1.0  0.5536975051586368  0.36029643863604144  0.41838385131293165  1.0000
  O   O5        1.0  0.3488868950937541  0.7794890545568893  0.4032971306410269  1.0000
  O   O6        1.0  0.3491747875658018  0.5633043896645696  0.6204172115642708  1.0000
  O   O7        1.0  0.35210969571916606  0.5764868681966474  0.20126604503191528  1.0000
  O   O8        1.0  0.35239751207838665  0.36030047128625897  0.41838620181424974  1.0000
