data_image0
_chemical_formula_structural       NC8NH4C6ClH3C6ClH4Zn2C4O8
_chemical_formula_sum              "N2 C24 H11 Cl2 Zn2 O8"
_cell_length_a       14.927258825633057
_cell_length_b       9.276545438789551
_cell_length_c       9.276548810779733
_cell_angle_alpha    86.11252841497436
_cell_angle_beta     89.72476465157726
_cell_angle_gamma    89.40960858786079

_space_group_name_H-M_alt    "P 1"
_space_group_IT_number       1

loop_
  _space_group_symop_operation_xyz
  'x, y, z'

loop_
  _atom_site_type_symbol
  _atom_site_label
  _atom_site_symmetry_multiplicity
  _atom_site_fract_x
  _atom_site_fract_y
  _atom_site_fract_z
  _atom_site_occupancy
  N   N1        1.0  0.8382985724839133  0.563556510631984  0.41147099300283074  1.0000
  C   C1        1.0  0.7607721482764014  0.5635564842717189  0.4114710026364403  1.0000
  C   C2        1.0  0.664339506364888  0.5635564844847043  0.4114710577003254  1.0000
  C   C3        1.0  0.6181258561577259  0.47443366564898315  0.3217088862128914  1.0000
  C   C4        1.0  0.5244145452637243  0.4744335755686447  0.32170885770479374  1.0000
  C   C5        1.0  0.4765235088836272  0.563556536719797  0.4114709699412955  1.0000
  C   C6        1.0  0.5227371593572615  0.6526793648826796  0.5012330333992394  1.0000
  C   C7        1.0  0.6164485372428002  0.6526794549601065  0.5012330619132577  1.0000
  C   C8        1.0  0.38009086793243235  0.563556438610501  0.41147091496351174  1.0000
  N   N2        1.0  0.302564443031074  0.5635565198996786  0.4114709266092995  1.0000
  H   H1        1.0  0.6544745168852332  0.40509088721921077  0.2518688978520618  1.0000
  H   H2        1.0  0.4893708608581652  0.40509086443539416  0.2518689950381472  1.0000
  H   H3        1.0  0.48638849862975403  0.7220221433124516  0.5710730217600688  1.0000
  H   H4        1.0  0.6514921543903499  0.7220221567691072  0.5710730326034739  1.0000
  C   C9        1.0  0.07314022173969414  0.14011918116255062  0.41123343823853764  1.0000
  C   C10       1.0  0.07387553789345169  0.2225564585770807  0.2782322679218294  1.0000
  C   C11       1.0  0.06645199314178152  0.15628930369235672  0.14812589224886663  1.0000
  C   C12       1.0  0.05811412898584378  0.006706315394225288  0.1490190322321876  1.0000
  C   C13       1.0  0.05876820617235867  0.9227083360644824  0.27957896430753304  1.0000
  C   C14       1.0  0.06773143901717836  0.9869828601146617  0.41172098318603645  1.0000
  Cl  Cl1       1.0  0.06624797314642117  0.2614088945462057  0.9836184256469395  1.0000
  H   H5        1.0  0.11828221237719272  0.40514640038424266  0.637782075045926  1.0000
  H   H6        1.0  0.07808169119220243  0.339250979007606  0.27537934135822306  1.0000
  H   H7        1.0  0.051979050399586724  0.9550657917092064  0.04836097118506722  1.0000
  C   C15       1.0  0.07172318729248926  0.5596879269268247  0.988325626632273  1.0000
  C   C16       1.0  0.14651987223017993  0.614500906885285  0.057463648329203254  1.0000
  C   C17       1.0  0.21622347110790785  0.6800610000471152  0.977268913443683  1.0000
  C   C18       1.0  0.21217507221757992  0.6919116219758437  0.8268362100098435  1.0000
  C   C19       1.0  0.13933680370881385  0.6360871890164677  0.7560484995620937  1.0000
  C   C20       1.0  0.06914842948160782  0.5674140158057221  0.8346288119208407  1.0000
  Cl  Cl2       1.0  0.30826475421971655  0.7494914170380147  0.06581334322081923  1.0000
  H   H8        1.0  0.9640607131813295  0.3982926805949276  0.28123486205960546  1.0000
  H   H9        1.0  0.2659352455893653  0.7432072558135512  0.7643764810340496  1.0000
  H   H10       1.0  0.13896029959016395  0.643611064975067  0.6390045398668605  1.0000
  H   H11       1.0  0.9255833621874655  0.514548942103425  0.5580022905889304  1.0000
  Zn  Zn1       1.0  0.97227568203161  0.5635527178887596  0.411479301383755  1.0000
  Zn  Zn2       1.0  0.1685873861836662  0.563548583098072  0.41147444399789  1.0000
  C   C21       1.0  0.06966982080610906  0.5602092841669912  0.674656056513878  1.0000
  C   C22       1.0  0.07119537907649165  0.5668938374400272  0.14829783129375884  1.0000
  C   C23       1.0  0.0687666551052446  0.8268551431659379  0.4058866542033457  1.0000
  C   C24       1.0  0.07209848862088929  0.30024624672575384  0.41706730943300424  1.0000
  O   O1        1.0  0.145517550634285  0.569304346979522  0.2019841175681556  1.0000
  O   O2        1.0  0.14434369856566698  0.5577945448353965  0.6209656681652755  1.0000
  O   O3        1.0  0.14361337199594182  0.77311446187401  0.4039324750993989  1.0000
  O   O4        1.0  0.1462478104789453  0.3539844392709819  0.41901720259862096  1.0000
  O   O5        1.0  0.994615190744794  0.7731168617187614  0.4039365427771029  1.0000
  O   O6        1.0  0.9953455064794493  0.557798676398386  0.6209696600083459  1.0000
  O   O7        1.0  0.996519364199317  0.5693084124782062  0.20198637691502455  1.0000
  O   O8        1.0  0.9972496237775055  0.35398849544250477  0.41901956997498047  1.0000
