data_image0
_chemical_formula_structural       NC9NC3NH7C6NCOCH9C8NH7Zn2C4O8
_chemical_formula_sum              "N5 C32 H23 O9 Zn2"
_cell_length_a       16.053384444249904
_cell_length_b       10.300268703208214
_cell_length_c       9.274266800404105
_cell_angle_alpha    85.98590923950522
_cell_angle_beta     89.35588104550887
_cell_angle_gamma    89.1549403880511

_space_group_name_H-M_alt    "P 1"
_space_group_IT_number       1

loop_
  _space_group_symop_operation_xyz
  'x, y, z'

loop_
  _atom_site_type_symbol
  _atom_site_label
  _atom_site_symmetry_multiplicity
  _atom_site_fract_x
  _atom_site_fract_y
  _atom_site_fract_z
  _atom_site_occupancy
  N   N1        1.0  0.7913549597330207  0.3930226871154998  0.4066519087329421  1.0000
  C   C1        1.0  0.740984525913059  0.37164560496910365  0.3235735217678031  1.0000
  C   C2        1.0  0.6783876617210918  0.34508449964245314  0.22036991268816664  1.0000
  C   C3        1.0  0.6926712511764299  0.3320186326076051  0.07526051714971671  1.0000
  C   C4        1.0  0.6163180378324502  0.3062976825455379  0.017260804719950954  1.0000
  C   C5        1.0  0.5587069413094222  0.3051022337362166  0.13011294120661043  1.0000
  C   C6        1.0  0.4681119074351144  0.28120467248500836  0.11873940531425985  1.0000
  C   C7        1.0  0.4117296411085583  0.3246253358728688  0.2229728769898127  1.0000
  C   C8        1.0  0.3262360322191723  0.30195999812124863  0.21207917815986876  1.0000
  C   C9        1.0  0.2690612616762996  0.3471433627024729  0.3189453824783639  1.0000
  N   N2        1.0  0.2231094870681851  0.3834644048780425  0.40484907507395684  1.0000
  C   C10       1.0  0.296398615479446  0.2357621228119882  0.09696722572825256  1.0000
  C   C11       1.0  0.3517712283988597  0.19246266784697497  0.992968699062061  1.0000
  C   C12       1.0  0.4370609220989449  0.21495928925267327  0.0034222045354632643  1.0000
  N   N3        1.0  0.5973240900591462  0.3289168978539439  0.25393513312528015  1.0000
  H   H1        1.0  0.7516657726939915  0.3402628091276336  0.017968468028038753  1.0000
  H   H2        1.0  0.6045743690716375  0.29175979462845675  0.9049595882023146  1.0000
  H   H3        1.0  0.4336304654607707  0.3776847142130728  0.3115462801598319  1.0000
  H   H4        1.0  0.2304232144185406  0.21773264868217623  0.08760743882673694  1.0000
  H   H5        1.0  0.3285808841790738  0.1410431901114759  0.9041357237960851  1.0000
  H   H6        1.0  0.4785599635561864  0.17896298483055229  0.92211970327932  1.0000
  H   H7        1.0  0.5706887200279681  0.33198606974929734  0.3568947296377276  1.0000
  C   C13       1.0  0.007320799907894579  0.006894015398531519  0.405758629300347  1.0000
  C   C14       1.0  0.022044361382728358  0.014949233101968945  0.2558534606588849  1.0000
  C   C15       1.0  0.03059863410790786  0.9016848165137312  0.18061933370795602  1.0000
  C   C16       1.0  0.02185573149933951  0.7797941313343949  0.25589020965087506  1.0000
  C   C17       1.0  0.007151531958301096  0.7695830522900793  0.40575475055974697  1.0000
  C   C18       1.0  0.00027492498721604184  0.8837223602390386  0.47998403702978987  1.0000
  N   N4        1.0  0.04437745848977936  0.9083679384116606  0.026786014632131042  1.0000
  C   C19       1.0  0.09363640145468266  0.005865654507380074  0.9491247193199759  1.0000
  O   O1        1.0  0.14037583779886043  0.07827277216368467  0.015494948624867225  1.0000
  C   C20       1.0  0.09440202834133693  0.015651740082583746  0.7876428454049802  1.0000
  H   H8        1.0  0.0005130225974911977  0.33130463226048185  0.4624191785150167  1.0000
  H   H9        1.0  0.02521127692743153  0.10933508520609062  0.19719800527824694  1.0000
  H   H10       1.0  0.027294479240637326  0.6929157746726965  0.19686157494653367  1.0000
  H   H11       1.0  0.9889417586661802  0.8766998369327103  0.5956075860345382  1.0000
  H   H12       1.0  0.00034949554202268256  0.4383548703618433  0.4622065518033798  1.0000
  H   H13       1.0  0.021692410434717813  0.8330576828147528  0.9689616601331505  1.0000
  H   H14       1.0  0.030825206183101583  0.9997500756271481  0.7470402785047727  1.0000
  H   H15       1.0  0.11524661845265105  0.1135683286248721  0.7455233882884258  1.0000
  H   H16       1.0  0.13758252316658814  0.9407041757590918  0.7477816791871708  1.0000
  C   C21       1.0  0.0091529038542888  0.3853567489487113  0.9824379850720519  1.0000
  C   C22       1.0  0.9607607005341339  0.29346488694248457  0.06379009259743018  1.0000
  C   C23       1.0  0.9073250153995089  0.21178429571851967  0.9961166959567267  1.0000
  C   C24       1.0  0.9005000843933494  0.2207618351451182  0.8454472789105427  1.0000
  C   C25       1.0  0.9500366712481294  0.30952371341915774  0.76278416030642  1.0000
  C   C26       1.0  0.005319417945429227  0.3911202936199808  0.8290753732098959  1.0000
  C   C27       1.0  0.8437760515467961  0.13131626573212782  0.7726028836831267  1.0000
  C   C28       1.0  0.8889158135242079  0.011594412031410426  0.7412000195696957  1.0000
  N   N5        1.0  0.9245476226774774  0.9171060956790956  0.7164130720053943  1.0000
  H   H17       1.0  0.10086294651806882  0.669133992262948  0.06148860655072941  1.0000
  H   H18       1.0  0.9628891814564814  0.2866921814783792  0.18079526817247205  1.0000
  H   H19       1.0  0.8705752362776665  0.14219690070519064  0.06151454664620104  1.0000
  H   H20       1.0  0.9467916223467311  0.31255858306956724  0.6459066968543832  1.0000
  H   H21       1.0  0.07009243670201615  0.5795892380036549  0.5324637797219194  1.0000
  H   H22       1.0  0.8200025632860172  0.17939246405226372  0.669932831489453  1.0000
  H   H23       1.0  0.789142330725232  0.10584366071309705  0.8429927415645446  1.0000
  Zn  Zn1       1.0  0.9159499507513332  0.39026096659994236  0.4061399669347485  1.0000
  Zn  Zn2       1.0  0.09851442159151219  0.3862156257368663  0.405372798719311  1.0000
  C   C29       1.0  0.006043336768367661  0.384857488021098  0.6690428416825442  1.0000
  C   C30       1.0  0.008423028168566441  0.39162069964005686  0.14247005707326132  1.0000
  C   C31       1.0  0.007205260501357505  0.6253795601310317  0.40001108402320806  1.0000
  C   C32       1.0  0.0072610421373355835  0.15109706921056934  0.41150189185701924  1.0000
  O   O2        1.0  0.07746034171931448  0.3921820874859454  0.19588714603696977  1.0000
  O   O3        1.0  0.07556823442733696  0.3812247975654021  0.6150430748310147  1.0000
  O   O4        1.0  0.07650556179127288  0.5754494435099828  0.3977980309946543  1.0000
  O   O5        1.0  0.0765229525458273  0.19795745147571275  0.4131320820493838  1.0000
  O   O6        1.0  0.937941357496758  0.5785191422429347  0.39838068385889036  1.0000
  O   O7        1.0  0.9370040301308031  0.3842960559997448  0.6156256508250431  1.0000
  O   O8        1.0  0.9388961453357122  0.39525328886684186  0.19646798887943873  1.0000
  O   O9        1.0  0.9379587556715158  0.20102864430409917  0.4137130329700136  1.0000
