data_image0
_chemical_formula_structural       NC5NC4H6C6NCH9C6OCH7Zn2C4O8
_chemical_formula_sum              "N3 C27 H22 O9 Zn2"
_cell_length_a       13.854160002989762
_cell_length_b       9.273386996610926
_cell_length_c       9.273891588657152
_cell_angle_alpha    85.97842517681073
_cell_angle_beta     89.68013189536481
_cell_angle_gamma    89.39858485477477

_space_group_name_H-M_alt    "P 1"
_space_group_IT_number       1

loop_
  _space_group_symop_operation_xyz
  'x, y, z'

loop_
  _atom_site_type_symbol
  _atom_site_label
  _atom_site_symmetry_multiplicity
  _atom_site_fract_x
  _atom_site_fract_y
  _atom_site_fract_z
  _atom_site_occupancy
  N   N1        1.0  0.9038680130929149  0.5644989725852465  0.40750514442359487  1.0000
  C   C1        1.0  0.831582667046907  0.5891859580416259  0.34842512378193047  1.0000
  C   C2        1.0  0.7416586821235763  0.6198972315875448  0.27492731641140455  1.0000
  C   C3        1.0  0.6540219545384238  0.5910519629457025  0.3466895154764327  1.0000
  C   C4        1.0  0.5665162697397599  0.6198972457123615  0.27492729321833487  1.0000
  C   C5        1.0  0.4764745263688361  0.589185811502972  0.3484252156336898  1.0000
  N   N2        1.0  0.4040944429412916  0.5644989090676917  0.4075051444412081  1.0000
  C   C6        1.0  0.5666756166669021  0.6781945476333799  0.13142086847992562  1.0000
  C   C7        1.0  0.6542649064884088  0.7091896792071873  0.05955171314091112  1.0000
  C   C8        1.0  0.6544335701354232  0.7676245272832598  0.9045574050339673  1.0000
  C   C9        1.0  0.7417527060549298  0.6781945454930516  0.1314207782157486  1.0000
  H   H1        1.0  0.6539247086871026  0.5458196563628073  0.45776103581701566  1.0000
  H   H2        1.0  0.4988611301190883  0.6994856909205149  0.07574283623589717  1.0000
  H   H3        1.0  0.7188996053322714  0.835591821185631  0.8806619788739205  1.0000
  H   H4        1.0  0.5891911274130991  0.8355918236503398  0.8806620439471131  1.0000
  H   H5        1.0  0.6553411726849866  0.6764262452171952  0.8331612900467147  1.0000
  H   H6        1.0  0.8096840887358466  0.6994858026684235  0.07574275063609015  1.0000
  C   C10       1.0  0.15695133332578748  0.1408513411964909  0.40821345295158973  1.0000
  C   C11       1.0  0.1743945107081386  0.22315051348965476  0.27788787629929534  1.0000
  C   C12       1.0  0.18274955189968148  0.1574711258066577  0.1475542428104617  1.0000
  C   C13       1.0  0.1737929738513033  0.00714030953240297  0.14421385772910478  1.0000
  C   C14       1.0  0.15805250382596991  0.9238741359716619  0.27408671264898254  1.0000
  C   C15       1.0  0.15102037595917595  0.9881355242786345  0.4068093832144162  1.0000
  N   N3        1.0  0.1813422753498617  0.9364002073632757  0.011189357386575118  1.0000
  C   C16       1.0  0.19795616120133808  0.01302702484514296  0.8705331626937296  1.0000
  H   H7        1.0  0.17577217222797073  0.4051321635585432  0.6448535122696144  1.0000
  H   H8        1.0  0.17932436612821856  0.33978044346303704  0.27611951671741286  1.0000
  H   H9        1.0  0.19529396387756703  0.2251894540277972  0.04964720802300304  1.0000
  H   H10       1.0  0.15350520774318346  0.8074525415788731  0.27181287646851837  1.0000
  H   H11       1.0  0.185225730420381  0.8599425625879695  0.7578739833021582  1.0000
  H   H12       1.0  0.17450689620699467  0.8240600661448301  0.014178270914194211  1.0000
  H   H13       1.0  0.13821414969671397  0.0913745324985753  0.8454896753915162  1.0000
  H   H14       1.0  0.26781857487269667  0.0705808624764912  0.8707657570730184  1.0000
  H   H15       1.0  0.20071357298456338  0.9348201661242251  0.785202450373879  1.0000
  C   C17       1.0  0.1555938622746795  0.5606726553490183  0.9842424037417686  1.0000
  C   C18       1.0  0.23421320961565373  0.6216072745032872  0.05271513184116583  1.0000
  C   C19       1.0  0.307282107304226  0.6933145407946584  0.9727865613208135  1.0000
  C   C20       1.0  0.30199220827674866  0.7044486830970058  0.8213274968131525  1.0000
  C   C21       1.0  0.22540682880611596  0.642640534077169  0.7515140186009908  1.0000
  C   C22       1.0  0.15237784584515163  0.5683141746684264  0.8307803807989838  1.0000
  O   O1        1.0  0.38327788737846924  0.7524729165627844  0.047895140465815444  1.0000
  C   C23       1.0  0.4622306682020014  0.8283972688901926  0.9806929566338615  1.0000
  H   H16       1.0  0.9266265046421509  0.47206541132200563  0.09540645960852534  1.0000
  H   H17       1.0  0.35720888154110164  0.7595378781107823  0.7563140735816054  1.0000
  H   H18       1.0  0.22457595645126696  0.6500758014595145  0.6344205208298477  1.0000
  H   H19       1.0  0.9997310003076108  0.502939645639009  0.5554460557109926  1.0000
  H   H20       1.0  0.4356376083566032  0.9260232858895049  0.9161355925710769  1.0000
  H   H21       1.0  0.5029779189592685  0.7567982744665414  0.9103989447567846  1.0000
  H   H22       1.0  0.511398526775227  0.8628805633378762  0.06547936126920195  1.0000
  Zn  Zn1       1.0  0.0482225561961118  0.5644951670422462  0.4075134834072238  1.0000
  Zn  Zn2       1.0  0.259739938679709  0.5644910159823137  0.4075086626110813  1.0000
  C   C24       1.0  0.1530238345730377  0.5611225717307433  0.6707761190975039  1.0000
  C   C25       1.0  0.15494095678674347  0.567865432803214  0.14424616532252243  1.0000
  C   C26       1.0  0.15215832167943794  0.8279289440682693  0.4013310037050937  1.0000
  C   C27       1.0  0.15580640934515078  0.3010573278823512  0.4136913604346353  1.0000
  O   O2        1.0  0.23499162411759844  0.5702715254699946  0.19794307032443248  1.0000
  O   O3        1.0  0.23350997556271075  0.5587122364251244  0.6170751421068297  1.0000
  O   O4        1.0  0.2328099751869529  0.7741617698649574  0.3994963025973697  1.0000
  O   O5        1.0  0.23569155265512975  0.3548220013761595  0.4155218017454472  1.0000
  O   O6        1.0  0.07227087004020705  0.7741641816513188  0.3995003442669187  1.0000
  O   O7        1.0  0.07297085857067362  0.5587163807977416  0.6170791040507373  1.0000
  O   O8        1.0  0.07445251412513018  0.5702756039264851  0.19794529940362637  1.0000
  O   O9        1.0  0.07515244232040352  0.3548260704895705  0.415524138907148  1.0000
