data_image0
_chemical_formula_structural       NC9NC5H8C7F3H5C8NH11Zn2C4O8
_chemical_formula_sum              "N3 C33 H24 F3 Zn2 O8"
_cell_length_a       17.807436237873137
_cell_length_b       9.272718291674593
_cell_length_c       9.275652972338538
_cell_angle_alpha    86.37424905988952
_cell_angle_beta     89.8368236096327
_cell_angle_gamma    87.96869977406762

_space_group_name_H-M_alt    "P 1"
_space_group_IT_number       1

loop_
  _space_group_symop_operation_xyz
  'x, y, z'

loop_
  _atom_site_type_symbol
  _atom_site_label
  _atom_site_symmetry_multiplicity
  _atom_site_fract_x
  _atom_site_fract_y
  _atom_site_fract_z
  _atom_site_occupancy
  N   N1        1.0  0.6952153386699554  0.5307348709299928  0.4103294392300181  1.0000
  C   C1        1.0  0.6347296112687076  0.4915800227377618  0.3977975783661938  1.0000
  C   C2        1.0  0.5594920142288021  0.4428757034224533  0.38220930460584523  1.0000
  C   C3        1.0  0.5412471607338255  0.36282441290402834  0.26506869425725355  1.0000
  C   C4        1.0  0.46819544697233  0.3154118711049541  0.24984084341021373  1.0000
  C   C5        1.0  0.412341334307268  0.34763116275891104  0.35171440103134777  1.0000
  C   C6        1.0  0.3347060624130112  0.297372035706408  0.3356231989574876  1.0000
  C   C7        1.0  0.2722946178038018  0.3883426889861441  0.3651014428087731  1.0000
  C   C8        1.0  0.1991015233196576  0.3407047822787195  0.3498870630134454  1.0000
  C   C9        1.0  0.13563011494839858  0.4346666271572725  0.37979189371890887  1.0000
  N   N2        1.0  0.08461211262204411  0.5102054575807828  0.4038345220169621  1.0000
  C   C10       1.0  0.18773731660338744  0.2018095691517154  0.30516412821023065  1.0000
  C   C11       1.0  0.24929141381702058  0.11082347383593194  0.2756764561269973  1.0000
  C   C12       1.0  0.3223658737393736  0.15802182027888145  0.290662718650158  1.0000
  C   C13       1.0  0.4312764425280156  0.4282329830546132  0.46910249577027713  1.0000
  C   C14       1.0  0.5043811601140457  0.47543299244373083  0.4841559902547354  1.0000
  H   H1        1.0  0.5834253546081368  0.3373443900714259  0.1852881190959088  1.0000
  H   H2        1.0  0.4551501692891088  0.2552093372596651  0.15735812135132418  1.0000
  H   H3        1.0  0.2805029048486245  0.4967779327754686  0.3979731042575578  1.0000
  H   H4        1.0  0.131371051720225  0.163938882198144  0.29311817310058874  1.0000
  H   H5        1.0  0.2403760596989921  0.0032903435524027644  0.24147942944571632  1.0000
  H   H6        1.0  0.3692036490619642  0.08487979353112785  0.2689670498546657  1.0000
  H   H7        1.0  0.38982306463880506  0.4531236538722163  0.5503152305146588  1.0000
  H   H8        1.0  0.5179450515308406  0.5369834896830685  0.5754929539335192  1.0000
  C   C15       1.0  0.8915411184163085  0.09698042228197278  0.4038707714829317  1.0000
  C   C16       1.0  0.8453495621438124  0.18006259765586075  0.30502794659100063  1.0000
  C   C17       1.0  0.7938861983896869  0.11465440265620244  0.21764624808579747  1.0000
  C   C18       1.0  0.7905941227095606  0.9635956087001463  0.22612815848140522  1.0000
  C   C19       1.0  0.8368296000473939  0.8795312076600279  0.3218511881885582  1.0000
  C   C20       1.0  0.888293587598964  0.9439485397414101  0.41030554441575884  1.0000
  C   C21       1.0  0.7462919568533986  0.20534657418584398  0.10965676168643568  1.0000
  F   F1        1.0  0.7271908696658346  0.33812292646678244  0.16236078816537303  1.0000
  F   F2        1.0  0.6805859380473851  0.1372089714958551  0.08063787954272805  1.0000
  F   F3        1.0  0.7863288018814969  0.22717414385848175  0.9827275909253933  1.0000
  H   H9        1.0  0.9819765857034601  0.1729846463921569  0.7134372843527703  1.0000
  H   H10       1.0  0.8483223584484776  0.29682986454750426  0.29826962677155344  1.0000
  H   H11       1.0  0.7527658177474909  0.9100341206764881  0.1574448759373761  1.0000
  H   H12       1.0  0.8337705793731363  0.7629363533458072  0.3238415485730719  1.0000
  H   H13       1.0  0.050272931303606994  0.8206545091451309  0.5810901085620575  1.0000
  C   C22       1.0  0.8882554248299103  0.517741975154066  0.983823943994703  1.0000
  C   C23       1.0  0.8391577258039498  0.6146443740304739  0.05150063558814821  1.0000
  C   C24       1.0  0.7959604962445342  0.7196492060359423  0.9702951335764506  1.0000
  C   C25       1.0  0.8008513505396765  0.7264158165052677  0.8194811101554795  1.0000
  C   C26       1.0  0.8482944349603968  0.6296648318523006  0.7504244225899721  1.0000
  C   C27       1.0  0.8915793169137856  0.5231870016005742  0.8303523160949342  1.0000
  C   C28       1.0  0.7428461257577779  0.8210904511368509  0.044468022705119736  1.0000
  C   C29       1.0  0.665859841152721  0.754701828919776  0.06600864059437384  1.0000
  N   N3        1.0  0.614524977958204  0.854846128224751  0.13580694892411516  1.0000
  H   H14       1.0  0.9441509451497487  0.3005764338285852  0.2778847626644809  1.0000
  H   H15       1.0  0.8355990491857697  0.6108205390445653  0.16835729643511832  1.0000
  H   H16       1.0  0.7672362065762295  0.8058498166885928  0.755043763381468  1.0000
  H   H17       1.0  0.8496272471988647  0.6357869221896961  0.6334289776372772  1.0000
  H   H18       1.0  0.99512761362325  0.3856703841288902  0.557150022970641  1.0000
  H   H19       1.0  0.766279789305114  0.8451896132614958  0.15098236257037811  1.0000
  H   H20       1.0  0.7364315757485217  0.9255241086347766  0.9790498681421216  1.0000
  H   H21       1.0  0.6424612804595716  0.7317592860808233  0.9590852898767541  1.0000
  H   H22       1.0  0.6715598912942685  0.6511353609701995  0.13332813846683833  1.0000
  H   H23       1.0  0.5616403705132174  0.8092160010379108  0.14072702577406182  1.0000
  H   H24       1.0  0.6320919135829949  0.8611366174266444  0.24268825025397797  1.0000
  Zn  Zn1       1.0  0.8075868824913204  0.5248067313017961  0.40846345307582177  1.0000
  Zn  Zn2       1.0  0.9722406422036475  0.5161219180518388  0.4057122683522587  1.0000
  C   C30       1.0  0.890971362562079  0.516412765256147  0.6702967150525616  1.0000
  C   C31       1.0  0.8888579537254384  0.5245176097681932  0.14387913162609944  1.0000
  C   C32       1.0  0.888881030553681  0.7838168008559243  0.40334557202879817  1.0000
  C   C33       1.0  0.8909482364941513  0.2571118449943808  0.4108303392700512  1.0000
  O   O1        1.0  0.9515454357609053  0.5234894417736398  0.19655100665389225  1.0000
  O   O2        1.0  0.9532522768618872  0.5108482703490961  0.6155363312973869  1.0000
  O   O3        1.0  0.9515634708829835  0.7267804649510983  0.3999714200489346  1.0000
  O   O4        1.0  0.9532341850907379  0.3075572597563303  0.4121158108477532  1.0000
  O   O5        1.0  0.8265932834159471  0.7333713925625257  0.4020599115116019  1.0000
  O   O6        1.0  0.8282820824462521  0.5174409300997798  0.6176247590711403  1.0000
  O   O7        1.0  0.8265752347836395  0.5300820401208839  0.19863770111667756  1.0000
  O   O8        1.0  0.8282639845742595  0.31414984848410366  0.41420261329640473  1.0000
