data_image0
_chemical_formula_structural       NC11NC3H8C7OC3FC3H9C7OC7H12Zn2C4O8
_chemical_formula_sum              "N2 C45 H29 O10 F1 Zn2"
_cell_length_a       17.807433833752565
_cell_length_b       10.29937835083307
_cell_length_c       10.299362532796529
_cell_angle_alpha    85.57000454149363
_cell_angle_beta     88.53944106115836
_cell_angle_gamma    90.70491928007121

_space_group_name_H-M_alt    "P 1"
_space_group_IT_number       1

loop_
  _space_group_symop_operation_xyz
  'x, y, z'

loop_
  _atom_site_type_symbol
  _atom_site_label
  _atom_site_symmetry_multiplicity
  _atom_site_fract_x
  _atom_site_fract_y
  _atom_site_fract_z
  _atom_site_occupancy
  N   N1        1.0  0.7074844044747073  0.43807536746337616  0.5344682644592466  1.0000
  C   C1        1.0  0.656668044742914  0.40336822703509245  0.6010345109695154  1.0000
  C   C2        1.0  0.5934473668882394  0.3601954042451054  0.6838344270774382  1.0000
  C   C3        1.0  0.6051803293485358  0.2966813200084727  0.8065599602508169  1.0000
  C   C4        1.0  0.5438670392252395  0.2551876219370164  0.887075740840062  1.0000
  C   C5        1.0  0.47066647338200707  0.2768949290268494  0.8455068182873741  1.0000
  C   C6        1.0  0.45795667829376946  0.3405634254865073  0.7223210738639712  1.0000
  C   C7        1.0  0.38018773820336776  0.36360002834587646  0.677971355935615  1.0000
  C   C8        1.0  0.3613805489986535  0.3466859024891575  0.5483960061316984  1.0000
  C   C9        1.0  0.28815002574658183  0.368354465880773  0.5067830186768127  1.0000
  C   C10       1.0  0.2327835568471786  0.4072554362736063  0.5939250752709284  1.0000
  C   C11       1.0  0.1574162378602378  0.4295820616072102  0.5509507216627716  1.0000
  N   N2        1.0  0.0968262869772599  0.44753100966957277  0.5164024690317861  1.0000
  C   C12       1.0  0.2508991439327805  0.4243799797511527  0.7229692698786976  1.0000
  C   C13       1.0  0.3240769378318725  0.40267656594126877  0.7648376869276189  1.0000
  C   C14       1.0  0.520127281900156  0.3820525636383436  0.6418217094663792  1.0000
  H   H1        1.0  0.6616476758326112  0.2792766738085566  0.839927451453521  1.0000
  H   H2        1.0  0.5530695521044527  0.20576325919527275  0.981817422401697  1.0000
  H   H3        1.0  0.4240298680046081  0.24235753157679538  0.9089498157168854  1.0000
  H   H4        1.0  0.4030416626132899  0.31502087877757123  0.4796855339833588  1.0000
  H   H5        1.0  0.2746901386204067  0.35444137017925526  0.40675249455222207  1.0000
  H   H6        1.0  0.2085209127626829  0.4548217606686801  0.7911651657023593  1.0000
  H   H7        1.0  0.3370086853934528  0.4181350792422125  0.8646852299616083  1.0000
  H   H8        1.0  0.5116235660097325  0.43283941192068304  0.5473141364313523  1.0000
  C   C15       1.0  0.9020797617512357  0.061416401453017175  0.5255028653002427  1.0000
  C   C16       1.0  0.8236941727385255  0.059515520220663636  0.5131153361572429  1.0000
  C   C17       1.0  0.7840634894366373  0.9412670920452069  0.5083491671124607  1.0000
  C   C18       1.0  0.8238778707756623  0.8242759807130945  0.5131136875997215  1.0000
  C   C19       1.0  0.9022380934520857  0.824180184538839  0.525378725512096  1.0000
  C   C20       1.0  0.9408625134977395  0.9432589337027464  0.531845349471223  1.0000
  C   C21       1.0  0.7013863379632356  0.9392241024747283  0.49389130225670197  1.0000
  O   O1        1.0  0.6723583457143726  0.8538085648143937  0.4285775950386126  1.0000
  C   C22       1.0  0.6516397145138183  0.03398083072095304  0.5535381951889748  1.0000
  C   C23       1.0  0.5847085973411303  0.07233419580384659  0.4928633670802752  1.0000
  C   C24       1.0  0.5369943867086429  0.1604486061477808  0.5491379531196945  1.0000
  F   F1        1.0  0.47288411493573507  0.19756287366055902  0.48939358939439503  1.0000
  C   C25       1.0  0.5552977333744189  0.21022571900848044  0.6668930824917809  1.0000
  C   C26       1.0  0.6211505095388801  0.1715941839821109  0.7288325029428082  1.0000
  C   C27       1.0  0.6690201227235671  0.08355527796558126  0.6729554160043025  1.0000
  H   H9        1.0  0.05013344564248335  0.272480865569094  0.5468774481161127  1.0000
  H   H10       1.0  0.7934650646275003  0.15029014198289972  0.5057049100964257  1.0000
  H   H11       1.0  0.793463602503483  0.7330669176095114  0.5084726631614633  1.0000
  H   H12       1.0  0.0012919773611450545  0.9439203683133753  0.5413944717886832  1.0000
  H   H13       1.0  0.9324110491953131  0.49677293710252396  0.5289910605917074  1.0000
  H   H14       1.0  0.5697263525283284  0.03494064383228457  0.401400692598252  1.0000
  H   H15       1.0  0.5183410987110392  0.2783288485972837  0.7104866544032951  1.0000
  H   H16       1.0  0.634971351476282  0.20944675754726164  0.8205626367562556  1.0000
  H   H17       1.0  0.7190952632856701  0.05322556162246704  0.7237837526308497  1.0000
  C   C28       1.0  0.9021002796611524  0.44267631678687686  0.14407665281582838  1.0000
  C   C29       1.0  0.8307748614568692  0.38226117032024526  0.15068286421271648  1.0000
  C   C30       1.0  0.7944767409057469  0.35310499190149147  0.03685815052382546  1.0000
  C   C31       1.0  0.8309864581105559  0.3824298734494076  0.9154187210161511  1.0000
  C   C32       1.0  0.9022176011170563  0.44292022988340163  0.906804947155384  1.0000
  C   C33       1.0  0.937301859246159  0.4729485620985907  0.02169469338885843  1.0000
  C   C34       1.0  0.719540651756349  0.28798492062296877  0.04614776281722799  1.0000
  O   O2        1.0  0.7041753529897289  0.20840205052109328  0.14276941944446753  1.0000
  C   C35       1.0  0.6620386927959934  0.3131406796023257  0.9458970342092918  1.0000
  C   C36       1.0  0.6562871086974543  0.43637839241750004  0.878291622962707  1.0000
  C   C37       1.0  0.6013034916940928  0.4592236037650397  0.7851436267134652  1.0000
  C   C38       1.0  0.5507478465235799  0.3603276668843227  0.7584556038477608  1.0000
  C   C39       1.0  0.5557094056616387  0.23726432945797593  0.8270158594111326  1.0000
  C   C40       1.0  0.6106862638998836  0.21429174985677915  0.9202365937611319  1.0000
  C   C41       1.0  0.44187864106706154  0.2970796049777753  0.6271593539999438  1.0000
  H   H18       1.0  0.0368194394261978  0.5561913420826647  0.33891298080124255  1.0000
  H   H19       1.0  0.8029544251945246  0.35884368738935546  0.24451132264452277  1.0000
  H   H20       1.0  0.8041254518074502  0.35669646551807394  0.8276148655753315  1.0000
  H   H21       1.0  0.9922516865518051  0.5196082903848624  0.015782569565065737  1.0000
  H   H22       1.0  0.9296693070338066  0.46564581595221227  0.5760585863885405  1.0000
  H   H23       1.0  0.6937490766216121  0.5155419926208626  0.8983655747421734  1.0000
  H   H24       1.0  0.5977438378969422  0.5546002840104474  0.7337305448438975  1.0000
  H   H25       1.0  0.5173846223595931  0.15876559007087335  0.8090786138298526  1.0000
  H   H26       1.0  0.6135159719771408  0.11871546652354237  0.971570381517517  1.0000
  H   H27       1.0  0.406601128975482  0.3449198321162821  0.5507054106818252  1.0000
  H   H28       1.0  0.4051872815773097  0.26397423888499283  0.7124164745604444  1.0000
  H   H29       1.0  0.46986595970509853  0.21243601157163527  0.5872179524187922  1.0000
  Zn  Zn1       1.0  0.8198400617459447  0.44080058914213804  0.5292623511322245  1.0000
  Zn  Zn2       1.0  0.984470614368906  0.44479517128438406  0.5216189699683182  1.0000
  C   C42       1.0  0.9021926645578835  0.4377001728832497  0.76263387447516  1.0000
  C   C43       1.0  0.902119809677273  0.44789726990148093  0.28824749035804165  1.0000
  C   C44       1.0  0.902203514134939  0.6799998229218682  0.5202272578218343  1.0000
  C   C45       1.0  0.9021089036100393  0.20559605814589332  0.5306541791112462  1.0000
  O   O3        1.0  0.9646027996939343  0.45115972655761305  0.33373191805837776  1.0000
  O   O4        1.0  0.9646604544294715  0.4374685317565575  0.7113479236453324  1.0000
  O   O5        1.0  0.964668373595595  0.6331285434565346  0.5156029045133059  1.0000
  O   O6        1.0  0.9645948243375073  0.2554997227540745  0.5294768424236116  1.0000
  O   O7        1.0  0.839715795597015  0.6300960363107049  0.5214044812784108  1.0000
  O   O8        1.0  0.8397078767407411  0.4344375849659541  0.7171494309120376  1.0000
  O   O9        1.0  0.8396502218056285  0.448128734010784  0.33953186394899504  1.0000
  O   O10       1.0  0.8396422464591764  0.25246872094906414  0.5352768856825016  1.0000
