data_image0
_chemical_formula_structural       NC12NC2H8C6BrH5C6OCH6Zn2C4O8
_chemical_formula_sum              "N2 C31 H19 Br1 O9 Zn2"
_cell_length_a       19.240039667572717
_cell_length_b       9.276564384272257
_cell_length_c       9.273891588657152
_cell_angle_alpha    86.03089208269444
_cell_angle_beta     89.6801242657702
_cell_angle_gamma    90.58593109150864

_space_group_name_H-M_alt    "P 1"
_space_group_IT_number       1

loop_
  _space_group_symop_operation_xyz
  'x, y, z'

loop_
  _atom_site_type_symbol
  _atom_site_label
  _atom_site_symmetry_multiplicity
  _atom_site_fract_x
  _atom_site_fract_y
  _atom_site_fract_z
  _atom_site_occupancy
  N   N1        1.0  0.6664699205589062  0.5638713778874772  0.4087594538083766  1.0000
  C   C1        1.0  0.6063215524423026  0.5638714703217464  0.4087593627924069  1.0000
  C   C2        1.0  0.5315035163468724  0.5638715991838381  0.4087592102949448  1.0000
  C   C3        1.0  0.49437294324019065  0.49332294173339086  0.5235920688459066  1.0000
  C   C4        1.0  0.421701333592883  0.4932006833493974  0.5236882204389881  1.0000
  C   C5        1.0  0.3851712825853371  0.563871699691807  0.4087589575127897  1.0000
  C   C6        1.0  0.42301691041777695  0.6345429256127058  0.29382991033292805  1.0000
  C   C7        1.0  0.49568673568443694  0.6344204069522092  0.2939261980997592  1.0000
  C   C8        1.0  0.307966191995117  0.5638716113907944  0.40875885168470916  1.0000
  C   C9        1.0  0.2700350181658591  0.4385240731477149  0.45533257290292717  1.0000
  C   C10       1.0  0.1973651835722058  0.4386418631012179  0.4552311163944514  1.0000
  C   C11       1.0  0.1616339041854724  0.5638714685647019  0.4087589194043457  1.0000
  C   C12       1.0  0.08681586567710259  0.5638713447504873  0.4087591954896119  1.0000
  N   N2        1.0  0.026667547989198  0.5638713015043573  0.408759426845944  1.0000
  C   C13       1.0  0.19885013622604916  0.6891011576991637  0.36228666364353157  1.0000
  C   C14       1.0  0.2715216876986031  0.6892191460350345  0.3621850265125  1.0000
  H   H1        1.0  0.5215772649375213  0.43870941227516086  0.6132499206898937  1.0000
  H   H2        1.0  0.3940985773872224  0.43948451772222064  0.6145834235249055  1.0000
  H   H3        1.0  0.39643313613284553  0.6882591207706314  0.20293465078714662  1.0000
  H   H4        1.0  0.5239121840909049  0.6890338278363932  0.2042686524448761  1.0000
  H   H5        1.0  0.2965484020032681  0.3398364329316308  0.4900053553992997  1.0000
  H   H6        1.0  0.169072341261494  0.34096301834596576  0.49104954956968655  1.0000
  H   H7        1.0  0.171713154911833  0.7867799753538913  0.3264682466396489  1.0000
  H   H8        1.0  0.2991947832435962  0.7879068737221058  0.3275121942537196  1.0000
  C   C15       1.0  0.8444770654742632  0.14039371556119007  0.4091280096462335  1.0000
  C   C16       1.0  0.835918696910311  0.22270430583683276  0.27738902518144815  1.0000
  C   C17       1.0  0.833825413881374  0.15653784073001664  0.14688054739597867  1.0000
  C   C18       1.0  0.8402816125743705  0.007119422287413133  0.14563296729341757  1.0000
  C   C19       1.0  0.8476208262054238  0.9230975279633068  0.27537983607208405  1.0000
  C   C20       1.0  0.8486669921988134  0.9873379780368463  0.4084032584321331  1.0000
  Br  Br1       1.0  0.8379303838055027  0.9171457804044598  0.9665525331522575  1.0000
  H   H9        1.0  0.8234760967532725  0.40506056351925107  0.643463809276495  1.0000
  H   H10       1.0  0.832495291045079  0.33933843319785884  0.27492140676968235  1.0000
  H   H11       1.0  0.8278453182212284  0.22185213975088633  0.04647930361047337  1.0000
  H   H12       1.0  0.8508448670083827  0.8068295047284529  0.2722722231199217  1.0000
  H   H13       1.0  0.8864143004783576  0.6914309373291315  0.632895572495412  1.0000
  C   C21       1.0  0.84769174408104  0.5600466077674109  0.9854935940830236  1.0000
  C   C22       1.0  0.904911581225045  0.6209567852431728  0.05401516665457962  1.0000
  C   C23       1.0  0.9582422814491708  0.6926352878710034  0.9741440797671818  1.0000
  C   C24       1.0  0.9545443687423073  0.7037649631779548  0.8226939442322156  1.0000
  C   C25       1.0  0.8987804065339412  0.6419816063728159  0.7528309206973076  1.0000
  C   C26       1.0  0.8454522945595413  0.5676850613446205  0.8320376991366326  1.0000
  O   O1        1.0  0.013555231815701507  0.751769934419305  0.049300079635702154  1.0000
  C   C27       1.0  0.07116484504946263  0.8276638315756834  0.9821587597135603  1.0000
  H   H14       1.0  0.6819346083729106  0.47147489976587736  0.0965866466158365  1.0000
  H   H15       1.0  0.9948542911850204  0.7588320604279146  0.7577246830577749  1.0000
  H   H16       1.0  0.7348832008370285  0.5023367516190125  0.5566509844112862  1.0000
  H   H17       1.0  0.0529908522887772  0.9252506821649062  0.9176796823701467  1.0000
  H   H18       1.0  0.0997907292150406  0.7560935628472427  0.9118073280007106  1.0000
  H   H19       1.0  0.10691344082708576  0.8621332945443381  0.06697280480518963  1.0000
  Zn  Zn1       1.0  0.7704151432768986  0.5638675808058662  0.40876776054329295  1.0000
  Zn  Zn2       1.0  0.9227222547298292  0.5638634415723951  0.4087628936369885  1.0000
  C   C28       1.0  0.8458456389515765  0.5604963435303987  0.672027670723652  1.0000
  C   C29       1.0  0.8472934308713198  0.5672364996266257  0.1455031233184627  1.0000
  C   C30       1.0  0.8478866213090042  0.8271956797383666  0.4027964939743497  1.0000
  C   C31       1.0  0.8452523877675596  0.3005354315303872  0.4147343783982092  1.0000
  O   O2        1.0  0.9049594772368613  0.5696416308743886  0.19920194145268072  1.0000
  O   O3        1.0  0.9037771617478227  0.5580869790579239  0.6183247447284377  1.0000
  O   O4        1.0  0.9054244976800648  0.7734500794639942  0.40091866338999615  1.0000
  O   O5        1.0  0.9033120896694496  0.35427853981056323  0.4166079147101857  1.0000
  O   O6        1.0  0.7898252563623633  0.7734524825706119  0.4009227394641741  1.0000
  O   O7        1.0  0.788177929201539  0.5580911140557254  0.6183287424662491  1.0000
  O   O8        1.0  0.7893602490725419  0.5696456999825084  0.19920420627292268  1.0000
  O   O9        1.0  0.787712861165385  0.3542825995793517  0.4166102876054427  1.0000
