data_image0
_chemical_formula_structural       NC8NC6H8C6NCH9C6NH7Zn2C4O8
_chemical_formula_sum              "N4 C31 H24 Zn2 O8"
_cell_length_a       17.457602349358154
_cell_length_b       9.273386996610926
_cell_length_c       9.274774538082513
_cell_angle_alpha    84.97283399596293
_cell_angle_beta     93.23827242343725
_cell_angle_gamma    91.0935878010965

_space_group_name_H-M_alt    "P 1"
_space_group_IT_number       1

loop_
  _space_group_symop_operation_xyz
  'x, y, z'

loop_
  _atom_site_type_symbol
  _atom_site_label
  _atom_site_symmetry_multiplicity
  _atom_site_fract_x
  _atom_site_fract_y
  _atom_site_fract_z
  _atom_site_occupancy
  N   N1        1.0  0.7083952015704863  0.6265550264323669  0.46965840971947337  1.0000
  C   C1        1.0  0.6475627609266962  0.5756517759712884  0.45796785810445595  1.0000
  C   C2        1.0  0.5718846213121827  0.5123343880590698  0.44343540549418387  1.0000
  C   C3        1.0  0.5133817471902371  0.5562260252501019  0.5265989935980206  1.0000
  C   C4        1.0  0.43913082450263724  0.4952553218197189  0.5127444883793786  1.0000
  C   C5        1.0  0.37703936672113  0.5415961592271734  0.600818189922053  1.0000
  C   C6        1.0  0.3021739951052255  0.5626369248950074  0.5387841479813833  1.0000
  C   C7        1.0  0.24367265269277996  0.6063232702194987  0.6220681853412637  1.0000
  C   C8        1.0  0.16735725557892833  0.6280579445303598  0.5575698643573488  1.0000
  N   N2        1.0  0.1060126328666235  0.6455255360066774  0.5057133975408912  1.0000
  C   C9        1.0  0.2595448769644991  0.6292340481347796  0.7679509746441104  1.0000
  C   C10       1.0  0.3336245560896814  0.6086216042054984  0.8304149554455378  1.0000
  C   C11       1.0  0.392114855882973  0.5651308758261251  0.7476393119947649  1.0000
  C   C12       1.0  0.42467036586309104  0.38965426241271817  0.414135115782472  1.0000
  C   C13       1.0  0.4831612618930485  0.3460683234525417  0.3314155220764776  1.0000
  C   C14       1.0  0.5566287382898798  0.40715860400102105  0.3458811099612862  1.0000
  H   H1        1.0  0.5255043086413744  0.6391029807572357  0.6004883426105223  1.0000
  H   H2        1.0  0.2895478355197837  0.5469806191038957  0.42540441002866003  1.0000
  H   H3        1.0  0.2147082630410833  0.6629730529857547  0.8332816944221206  1.0000
  H   H4        1.0  0.3457259910114598  0.6260113808412087  0.9433760116221246  1.0000
  H   H5        1.0  0.448862261553255  0.5480429515425249  0.7989297042902903  1.0000
  H   H6        1.0  0.3684274193620084  0.33940623533134695  0.40240299670504864  1.0000
  H   H7        1.0  0.4715412053497639  0.2644426879246353  0.25619137174307305  1.0000
  H   H8        1.0  0.6014726547329592  0.37244886312505465  0.28112067483190706  1.0000
  C   C15       1.0  0.9095692491734395  0.21249295340654076  0.48860960285332494  1.0000
  C   C16       1.0  0.9226105550701541  0.2977269037340802  0.3592961744158416  1.0000
  C   C17       1.0  0.928427879004745  0.2346377768070547  0.22931962602708866  1.0000
  C   C18       1.0  0.9212874043932234  0.08402555813501336  0.22532739294606619  1.0000
  C   C19       1.0  0.9095966759521057  0.9978970766979717  0.35430997468243636  1.0000
  C   C20       1.0  0.9048460045775918  0.05957670243132074  0.48677540526862  1.0000
  N   N3        1.0  0.9264472561082489  0.015892096600289125  0.09259684137884383  1.0000
  C   C21       1.0  0.9387640752578504  0.09560243871623886  0.9528735926557445  1.0000
  H   H9        1.0  0.926025352491369  0.4733598320229171  0.7270512745731927  1.0000
  H   H10       1.0  0.9265179947625255  0.41457463861581784  0.357879819487928  1.0000
  H   H11       1.0  0.9377802093031268  0.3045396272054668  0.1321326206379907  1.0000
  H   H12       1.0  0.9059677708096316  0.8813426934214824  0.3517041053670127  1.0000
  H   H13       1.0  0.9342541935323307  0.9265573351765285  0.8409656940490846  1.0000
  H   H14       1.0  0.9210328790873442  0.903240595453258  0.0950987008641273  1.0000
  H   H15       1.0  0.8911183425242386  0.17212112731579784  0.9234769645811838  1.0000
  H   H16       1.0  0.9942974222417141  0.15580167628880212  0.9581421158907029  1.0000
  H   H17       1.0  0.940416464795553  0.018988572360559605  0.867581142333501  1.0000
  C   C22       1.0  0.9058101478198175  0.639658098371146  0.06374333249846043  1.0000
  C   C23       1.0  0.9597004353238456  0.7273660604891232  0.1352252136310781  1.0000
  C   C24       1.0  0.017099022837116618  0.803357235616394  0.05954351190207353  1.0000
  C   C25       1.0  0.02107365543718154  0.7919949248063385  0.9109456747530618  1.0000
  C   C26       1.0  0.9674118041428745  0.7074759988830408  0.8377766716262882  1.0000
  C   C27       1.0  0.9086051150471663  0.6324115373420198  0.9116416451165419  1.0000
  N   N4        1.0  0.07187122162181625  0.8909065621615996  0.1341109407764285  1.0000
  H   H18       1.0  0.7926992277980233  0.3522377858140746  0.17987498656794146  1.0000
  H   H19       1.0  0.958281230968078  0.7341407117543419  0.2511052995032299  1.0000
  H   H20       1.0  0.06539422663111227  0.8498498696917742  0.8513412949249171  1.0000
  H   H21       1.0  0.9708554297201147  0.7036272383610237  0.7219225404706995  1.0000
  H   H22       1.0  0.8300401251232048  0.44310227624310317  0.638743683357831  1.0000
  H   H23       1.0  0.06959281855308785  0.8998450189333759  0.2452592517339722  1.0000
  H   H24       1.0  0.11509071672559636  0.9475744563519976  0.07869728521145714  1.0000
  Zn  Zn1       1.0  0.8231390523097436  0.6320255665882  0.48007144442988614  1.0000
  Zn  Zn2       1.0  0.9912688727763757  0.6400430693907373  0.4953122080970008  1.0000
  C   C28       1.0  0.9081071372841578  0.6280353668192749  0.7513829971611645  1.0000
  C   C29       1.0  0.9063026140942299  0.644035175346614  0.22400095955201446  1.0000
  C   C30       1.0  0.9057158981150703  0.8995088367640264  0.48136874237463206  1.0000
  C   C31       1.0  0.9086938058083276  0.37255996913983  0.494015289859386  1.0000
  O   O1        1.0  0.970272316011197  0.6485404705354657  0.28356868717155215  1.0000
  O   O2        1.0  0.9717440835391913  0.6296140862194248  0.7033822432874182  1.0000
  O   O3        1.0  0.9698122725034318  0.8488322926051893  0.48534374093488797  1.0000
  O   O4        1.0  0.9722040692612878  0.42932227265669387  0.5016070760544482  1.0000
  O   O5        1.0  0.8422037984503414  0.8427463605878986  0.47377657126391687  1.0000
  O   O6        1.0  0.8441355995666002  0.6235298877298203  0.6918149928870867  1.0000
  O   O7        1.0  0.842663826648292  0.6424562366214817  0.27199970115195216  1.0000
  O   O8        1.0  0.8445955803095613  0.42323802750137146  0.4900381982959612  1.0000
