data_image0
_chemical_formula_structural       NC11NC3H8C12OCH12C12NH11Zn2C4O8
_chemical_formula_sum              "N3 C43 H31 O9 Zn2"
_cell_length_a       17.807433833752565
_cell_length_b       10.299790755002418
_cell_length_c       10.299774167527174
_cell_angle_alpha    85.5728606880388
_cell_angle_beta     88.5175958409119
_cell_angle_gamma    90.6669456681986

_space_group_name_H-M_alt    "P 1"
_space_group_IT_number       1

loop_
  _space_group_symop_operation_xyz
  'x, y, z'

loop_
  _atom_site_type_symbol
  _atom_site_label
  _atom_site_symmetry_multiplicity
  _atom_site_fract_x
  _atom_site_fract_y
  _atom_site_fract_z
  _atom_site_occupancy
  N   N1        1.0  0.7072547815391194  0.4380280209265289  0.5346302525973349  1.0000
  C   C1        1.0  0.6564370767608657  0.4033213640757529  0.601191699466854  1.0000
  C   C2        1.0  0.5932147264435822  0.3601491428799205  0.6839856453030487  1.0000
  C   C3        1.0  0.6049450267398365  0.2966359243797494  0.80670236918673  1.0000
  C   C4        1.0  0.5436299225254876  0.2551427847247838  0.8872123849931448  1.0000
  C   C5        1.0  0.47043018371170486  0.2768497880040342  0.8456464625000075  1.0000
  C   C6        1.0  0.45772309298867225  0.34051742004192714  0.7224695534010865  1.0000
  C   C7        1.0  0.3799550825013808  0.36355370545599813  0.6781230259596085  1.0000
  C   C8        1.0  0.36118300404475895  0.3466432382574287  0.548549959999427  1.0000
  C   C9        1.0  0.2879533324524436  0.3683115008792115  0.5069399706238491  1.0000
  C   C10       1.0  0.23255266312797798  0.40720851184327894  0.5940827914566507  1.0000
  C   C11       1.0  0.157186243211942  0.42953482933496145  0.5511115297627425  1.0000
  N   N2        1.0  0.096597015129529  0.44748352991666285  0.5165657628029616  1.0000
  C   C12       1.0  0.2506331757858084  0.4243293964265012  0.7231247349597874  1.0000
  C   C13       1.0  0.3238100750421242  0.40262627988761107  0.764990143728832  1.0000
  C   C14       1.0  0.5198955088160644  0.38200599967874793  0.6419759529368667  1.0000
  H   H1        1.0  0.6614117017219885  0.27923152096741544  0.8400674538936265  1.0000
  H   H2        1.0  0.5528305313356753  0.20571911170129065  0.9819472331380585  1.0000
  H   H3        1.0  0.42379285747884954  0.24231293087479908  0.909084763590771  1.0000
  H   H4        1.0  0.4028714658838832  0.3149813905309724  0.479838802356531  1.0000
  H   H5        1.0  0.2745208794834551  0.3544012762068416  0.4069111380998758  1.0000
  H   H6        1.0  0.20822818050414196  0.454768078841658  0.791321228741777  1.0000
  H   H7        1.0  0.33671383440151764  0.4180818418704655  0.8648361295244613  1.0000
  H   H8        1.0  0.5113931212380022  0.4327920791032836  0.547475320493221  1.0000
  C   C15       1.0  0.9019969985661674  0.061389755093977275  0.5256336341561123  1.0000
  C   C16       1.0  0.8802415038486544  0.04973261523717176  0.6580754842924779  1.0000
  C   C17       1.0  0.8691582144835641  0.9266881113291184  0.7251543931040987  1.0000
  C   C18       1.0  0.8801065391183558  0.8144470256184494  0.6580159640554053  1.0000
  C   C19       1.0  0.9018620005492026  0.8241119496337834  0.5255731829885832  1.0000
  C   C20       1.0  0.9126871606576078  0.9480217535857518  0.4601241982655493  1.0000
  C   C21       1.0  0.8461467103113138  0.915409732690303  0.8652714774108645  1.0000
  C   C22       1.0  0.7913282438271751  0.8232249807701818  0.9128785505182088  1.0000
  C   C23       1.0  0.769738088377309  0.8128853481851471  0.04461373712341321  1.0000
  C   C24       1.0  0.8024802817973007  0.8940505916077793  0.13043901289662818  1.0000
  C   C25       1.0  0.8574986237021258  0.9868498135354978  0.08469429174122989  1.0000
  C   C26       1.0  0.8788559164934655  0.9968224538527465  0.9524432322363082  1.0000
  O   O1        1.0  0.8922189034933149  0.07041673134897786  0.16694819647354675  1.0000
  C   C27       1.0  0.876103530511162  0.07104074478320221  0.30302622413092817  1.0000
  H   H9        1.0  0.9103196502838142  0.39328390743706426  0.47518736985469784  1.0000
  H   H10       1.0  0.8708695117913602  0.13654541284528585  0.7089369261277501  1.0000
  H   H11       1.0  0.872613798753541  0.7193792596326126  0.709729286131802  1.0000
  H   H12       1.0  0.929471183843797  0.956246362041854  0.35795087970346784  1.0000
  H   H13       1.0  0.9101144443662492  0.5003423507214935  0.47509254267734674  1.0000
  H   H14       1.0  0.7644619848231957  0.7603250485550859  0.8479183847112058  1.0000
  H   H15       1.0  0.7273066578291988  0.7418942026727492  0.08025981050900821  1.0000
  H   H16       1.0  0.7846698662928414  0.883896593712058  0.2319276548560282  1.0000
  H   H17       1.0  0.9218934044199311  0.06740252926426306  0.9182818321240298  1.0000
  H   H18       1.0  0.8890775579566867  0.9748408813233272  0.353044674658536  1.0000
  H   H19       1.0  0.9115519248597119  0.14655240842748185  0.34359401195774153  1.0000
  H   H20       1.0  0.8161297661955349  0.09449891229720263  0.3202437303114175  1.0000
  C   C28       1.0  0.9019550690368294  0.4426369677226769  0.14425016471467345  1.0000
  C   C29       1.0  0.8283870058626458  0.39154855904503916  0.15048861918414283  1.0000
  C   C30       1.0  0.7910831615110989  0.3657768360346075  0.03650308541946323  1.0000
  C   C31       1.0  0.8283353526296205  0.39177860507371687  0.915186284514113  1.0000
  C   C32       1.0  0.9019038940774009  0.4428647988749648  0.9069566636866752  1.0000
  C   C33       1.0  0.9383016676169771  0.46800840322887255  0.022026943198363732  1.0000
  C   C34       1.0  0.7132524143442227  0.3117288273376264  0.044156357290422665  1.0000
  C   C35       1.0  0.6921563310788504  0.21276287183475384  0.1404425102784892  1.0000
  C   C36       1.0  0.6188985327348452  0.1619483249990692  0.14751222282200982  1.0000
  C   C37       1.0  0.565578001440388  0.20917894742987334  0.05867732451812402  1.0000
  C   C38       1.0  0.5861784037517679  0.30774270519429225  0.962573568721433  1.0000
  C   C39       1.0  0.6594136256329634  0.35865796533838146  0.9552386147175215  1.0000
  N   N3        1.0  0.49065228593094024  0.15714784524887127  0.06604472736511635  1.0000
  H   H21       1.0  0.9300006554984731  0.4620506350131009  0.4693300400377267  1.0000
  H   H22       1.0  0.7995473576549091  0.37334506677825297  0.24411392288000733  1.0000
  H   H23       1.0  0.8002037452342158  0.37041990942589886  0.8271629152819271  1.0000
  H   H24       1.0  0.9950562044839885  0.5074198755532298  0.016446268180050353  1.0000
  H   H25       1.0  0.9299255571341523  0.4623857602909074  0.5763637173878364  1.0000
  H   H26       1.0  0.7325753090116038  0.17347639800014417  0.20922050636231138  1.0000
  H   H27       1.0  0.6037571077072548  0.08553414818341798  0.22203974378129024  1.0000
  H   H28       1.0  0.5454460982910988  0.3453562635349193  0.8935402027250722  1.0000
  H   H29       1.0  0.6736766496083786  0.43591730203772877  0.8810837915479839  1.0000
  H   H30       1.0  0.4505130241040785  0.1917293617065221  0.00023944353769090113  1.0000
  H   H31       1.0  0.4747664847940786  0.0836608539292778  0.137359393186121  1.0000
  Zn  Zn1       1.0  0.8196105398100073  0.4407532041929616  0.5294247155440768  1.0000
  Zn  Zn2       1.0  0.9842412432679054  0.44474773029824055  0.5217818862764536  1.0000
  C   C40       1.0  0.9019128165680759  0.43764802619909293  0.7627893208688166  1.0000
  C   C41       1.0  0.9019407639733747  0.4478545905577822  0.2884173248237085  1.0000
  C   C42       1.0  0.9018839796103978  0.6799396033966555  0.5204098684619074  1.0000
  C   C43       1.0  0.9019695450256662  0.205561451726769  0.5307968491979371  1.0000
  O   O2        1.0  0.9644124580485223  0.45111590858447514  0.33390072731213977  1.0000
  O   O3        1.0  0.9643920173208077  0.4374174812323328  0.7115048140561822  1.0000
  O   O4        1.0  0.9643678888091888  0.633070973982796  0.5157817303553576  1.0000
  O   O5        1.0  0.9644365303877213  0.25546242373202266  0.5296237162495359  1.0000
  O   O6        1.0  0.8394151965098121  0.6300385093974561  0.5215828881722862  1.0000
  O   O7        1.0  0.839439324746438  0.4343865769187194  0.7173059025070836  1.0000
  O   O8        1.0  0.8394597656368632  0.44808495855011565  0.3397002544276815  1.0000
  O   O9        1.0  0.8394838379681032  0.25243146443792885  0.5354233407297977  1.0000
