data_image0
_chemical_formula_structural       NC12NC2H8C7NH5C7NH4Zn2C4O8
_chemical_formula_sum              "N4 C32 H17 Zn2 O8"
_cell_length_a       19.240039667572717
_cell_length_b       9.275154477615127
_cell_length_c       9.275157849593905
_cell_angle_alpha    86.33461140486662
_cell_angle_beta     89.74087680363883
_cell_angle_gamma    89.43370810513201

_space_group_name_H-M_alt    "P 1"
_space_group_IT_number       1

loop_
  _space_group_symop_operation_xyz
  'x, y, z'

loop_
  _atom_site_type_symbol
  _atom_site_label
  _atom_site_symmetry_multiplicity
  _atom_site_fract_x
  _atom_site_fract_y
  _atom_site_fract_z
  _atom_site_occupancy
  N   N1        1.0  0.6504839893180753  0.562639358269218  0.4165668491014862  1.0000
  C   C1        1.0  0.5903356202581491  0.5626394506325103  0.4165667585464319  1.0000
  C   C2        1.0  0.5155175828346205  0.5626395793801057  0.4165666066961609  1.0000
  C   C3        1.0  0.4791300414002426  0.49217263205258505  0.5310394763992488  1.0000
  C   C4        1.0  0.40645966712377757  0.49205045283781607  0.5311350227436704  1.0000
  C   C5        1.0  0.3691853479691849  0.562639679717529  0.4165663544429968  1.0000
  C   C6        1.0  0.40628670573031356  0.6332291162710315  0.3019979028573696  1.0000
  C   C7        1.0  0.47895776896297376  0.6331066769067073  0.30209358409941545  1.0000
  C   C8        1.0  0.2919802581821209  0.5626395913673021  0.4165662482094725  1.0000
  C   C9        1.0  0.2552892350858789  0.43734165337591024  0.46252883281513024  1.0000
  C   C10       1.0  0.1826182057903605  0.43745936170036437  0.4624279610289139  1.0000
  C   C11       1.0  0.14564797179300176  0.56263944860662  0.4165663152301058  1.0000
  C   C12       1.0  0.0708299346265601  0.5626393249810623  0.4165665906701028  1.0000
  N   N2        1.0  0.0106816174759481  0.5626392818827284  0.4165668217766536  1.0000
  C   C13       1.0  0.1816252483810674  0.6878196191339416  0.37070461107353614  1.0000
  C   C14       1.0  0.2542956031346784  0.6879375256973652  0.37060355965131886  1.0000
  H   H1        1.0  0.5069099507317931  0.43762281952414145  0.6204185136777942  1.0000
  H   H2        1.0  0.3794244187109246  0.43839860253813745  0.6217555023332872  1.0000
  H   H3        1.0  0.3791354233372856  0.6868809960621622  0.21137736696009335  1.0000
  H   H4        1.0  0.5066076309445479  0.6876563810654428  0.2127148524325404  1.0000
  H   H5        1.0  0.2827779904922208  0.3386918528748474  0.49672082085875263  1.0000
  H   H6        1.0  0.15529152717065436  0.33981888043275804  0.49777024320550334  1.0000
  H   H7        1.0  0.1535221036470714  0.7854600733154506  0.3353623449350658  1.0000
  H   H8        1.0  0.2809933262365532  0.7865874136243247  0.3364115222748778  1.0000
  C   C15       1.0  0.8326011046789724  0.1392339788285539  0.41489911187229866  1.0000
  C   C16       1.0  0.8138061132381981  0.22118940066361395  0.287830940811977  1.0000
  C   C17       1.0  0.7893428288147781  0.15399213285850744  0.16749376138150884  1.0000
  C   C18       1.0  0.7832704814741415  0.0039227802354326905  0.1728075218104581  1.0000
  C   C19       1.0  0.8027160910533186  0.9207317908153914  0.29697927491452303  1.0000
  C   C20       1.0  0.8285712043101616  0.9860337373608157  0.4182469835436322  1.0000
  C   C21       1.0  0.769626569882967  0.23951461876226987  0.03889408762842005  1.0000
  N   N3        1.0  0.753780172725371  0.30825910860475436  0.9355328904410651  1.0000
  H   H9        1.0  0.8452903952739292  0.21931170014949689  0.7686549564126572  1.0000
  H   H10       1.0  0.816654077320969  0.3381076214219029  0.28355479753050705  1.0000
  H   H11       1.0  0.764098570333332  0.9509055610421993  0.08032084170765019  1.0000
  H   H12       1.0  0.7990667128332589  0.8042629738215361  0.2968524443969298  1.0000
  H   H13       1.0  0.8400672543126705  0.6895460532571325  0.6552734613310154  1.0000
  C   C22       1.0  0.8315277904840355  0.5585583092849915  0.9933591428348456  1.0000
  C   C23       1.0  0.891210080765043  0.6055619048173493  0.063240993264011  1.0000
  C   C24       1.0  0.9472730996874926  0.6639031430046578  0.9835934704180951  1.0000
  C   C25       1.0  0.9443062208152  0.6761682907910636  0.8329830141669397  1.0000
  C   C26       1.0  0.8860584341514437  0.6279971428894076  0.7617550056991629  1.0000
  C   C27       1.0  0.8296445342817829  0.566709345623529  0.839786938898349  1.0000
  C   C28       1.0  0.0076270444158037555  0.7129146817893661  0.05679085128044381  1.0000
  N   N4        1.0  0.05613616535860765  0.7523067434111586  0.11562917777842308  1.0000
  H   H14       1.0  0.6626504623941415  0.509944071129111  0.10100458537308188  1.0000
  H   H15       1.0  0.9873687399442902  0.7217756588676416  0.7703405189316954  1.0000
  H   H16       1.0  0.885868602190675  0.635577511386028  0.644720535001837  1.0000
  H   H17       1.0  0.7166975470887521  0.5279242787310481  0.5622271201368374  1.0000
  Zn  Zn1       1.0  0.7544292531083555  0.5626355668760514  0.4165751360765204  1.0000
  Zn  Zn2       1.0  0.9067364022580943  0.5626314253926181  0.41657025014749727  1.0000
  C   C29       1.0  0.8300262780692694  0.5594247065653473  0.6797712277224983  1.0000
  C   C30       1.0  0.8311410315140717  0.5658441062571595  0.1533743070929907  1.0000
  C   C31       1.0  0.829342138849837  0.8259152331086561  0.4118711215352362  1.0000
  C   C32       1.0  0.8318251268346856  0.29935184816782723  0.42127448326901606  1.0000
  O   O1        1.0  0.8888110309527899  0.5682814243568869  0.20707497892146187  1.0000
  O   O2        1.0  0.8879538867871306  0.5569831534676926  0.626066428421103  1.0000
  O   O3        1.0  0.8874006532125556  0.7721776383362727  0.4097352031892785  1.0000
  O   O4        1.0  0.8893642127465948  0.3530869487633559  0.42340609613681557  1.0000
  O   O5        1.0  0.7718013906449093  0.7721800435082236  0.40973929008129506  1.0000
  O   O6        1.0  0.7723546161433571  0.5569872901885773  0.6260704453184482  1.0000
  O   O7        1.0  0.7732117644496077  0.5682854941473903  0.2070772628978015  1.0000
  O   O8        1.0  0.773764946049237  0.3530910092817201  0.42340848812371945  1.0000
