data_image0
_chemical_formula_structural       NC9NC5H8C7OH6C7OH5Zn2C4O8
_chemical_formula_sum              "N2 C32 H19 O10 Zn2"
_cell_length_a       17.807436237873137
_cell_length_b       9.274078303013077
_cell_length_c       9.274081674992354
_cell_angle_alpha    86.2431896807078
_cell_angle_beta     89.07685020002327
_cell_angle_gamma    87.81002060722456

_space_group_name_H-M_alt    "P 1"
_space_group_IT_number       1

loop_
  _space_group_symop_operation_xyz
  'x, y, z'

loop_
  _atom_site_type_symbol
  _atom_site_label
  _atom_site_symmetry_multiplicity
  _atom_site_fract_x
  _atom_site_fract_y
  _atom_site_fract_z
  _atom_site_occupancy
  N   N1        1.0  0.7041207775122217  0.5268680309601288  0.40333704176482055  1.0000
  C   C1        1.0  0.6437775513197869  0.48767069034748234  0.39097770412142363  1.0000
  C   C2        1.0  0.5687172102225129  0.43891351509034826  0.3756040302463215  1.0000
  C   C3        1.0  0.5514007808488135  0.35853206939602056  0.25880523892459495  1.0000
  C   C4        1.0  0.47852199079620134  0.3110679325990131  0.24378628984583178  1.0000
  C   C5        1.0  0.4219132426482982  0.34356558188212927  0.34552878973237533  1.0000
  C   C6        1.0  0.3444609221870498  0.2932518974640572  0.3296590376719212  1.0000
  C   C7        1.0  0.2817158747130191  0.3843222387622496  0.3587364918070186  1.0000
  C   C8        1.0  0.20869592825233443  0.33663272002969613  0.343732016974041  1.0000
  C   C9        1.0  0.1448837255832518  0.43069608817464644  0.37322281501961024  1.0000
  N   N2        1.0  0.093591739761633  0.5063165395077436  0.3969325898134153  1.0000
  C   C10       1.0  0.1978390880192735  0.19758605907958554  0.29962104721174443  1.0000
  C   C11       1.0  0.2597268755248234  0.10650024706252915  0.2705342323507278  1.0000
  C   C12       1.0  0.3326303958012613  0.15374949608710287  0.28531251627786886  1.0000
  C   C13       1.0  0.4399174269255163  0.4244983442962063  0.46257264820307076  1.0000
  C   C14       1.0  0.5128507345048784  0.4717494353751852  0.4774181647090969  1.0000
  H   H1        1.0  0.5941703049666681  0.3328339972867651  0.17912840172670963  1.0000
  H   H2        1.0  0.466205473980405  0.25060544355023606  0.1515601100468429  1.0000
  H   H3        1.0  0.2895422864967953  0.49287028561543456  0.3911301498433686  1.0000
  H   H4        1.0  0.1416101293527859  0.15967447242676536  0.2877419660012668  1.0000
  H   H5        1.0  0.25120134949151396  0.9988510020816744  0.2368110419492726  1.0000
  H   H6        1.0  0.3797224340742401  0.08053264912653174  0.2639393284237055  1.0000
  H   H7        1.0  0.3978635811107257  0.4496107332348216  0.5436844348310179  1.0000
  H   H8        1.0  0.5256919383125869  0.5335571581505387  0.5684924588978233  1.0000
  C   C15       1.0  0.901103735394676  0.09299472066307748  0.39880534004348334  1.0000
  C   C16       1.0  0.8869689152494047  0.17604279906732861  0.2689196575991352  1.0000
  C   C17       1.0  0.8663259510121906  0.11091175580888124  0.14406450518978953  1.0000
  C   C18       1.0  0.8596183561314885  0.9606653107512106  0.14901844419139043  1.0000
  C   C19       1.0  0.8746070269891524  0.8764896196096046  0.27620747284567  1.0000
  C   C20       1.0  0.8966159930200824  0.940178497757756  0.40147669072503733  1.0000
  C   C21       1.0  0.8512519020596648  0.20142679689965842  0.010163166528569963  1.0000
  O   O1        1.0  0.8322848261375212  0.14611132679112804  0.8963455804990965  1.0000
  H   H9        1.0  0.8977120332607212  0.17297102258060337  0.7537530884880179  1.0000
  H   H10       1.0  0.8903398275066493  0.2927027714717396  0.2657553393557195  1.0000
  H   H11       1.0  0.8434690121575097  0.907816068406216  0.05412603035325203  1.0000
  H   H12       1.0  0.8706920956823513  0.7602521679127479  0.2755007873936186  1.0000
  H   H13       1.0  0.8976239549274976  0.643363951741296  0.6398417689614508  1.0000
  H   H14       1.0  0.8564444323525807  0.31745385646428037  0.008563164933669933  1.0000
  C   C22       1.0  0.9001481827398833  0.512738337125322  0.9768384883900625  1.0000
  C   C23       1.0  0.9608498653137265  0.5722961997336378  0.044558877328166886  1.0000
  C   C24       1.0  0.017239364909731988  0.6427202673963203  0.9633737739860038  1.0000
  C   C25       1.0  0.012909865972462463  0.6539784684458043  0.8123560932721965  1.0000
  C   C26       1.0  0.9537873358367898  0.5935150273679848  0.7434043879140937  1.0000
  C   C27       1.0  0.8975715369132498  0.5204348908288163  0.8234434603244312  1.0000
  C   C28       1.0  0.07967814203277099  0.7050571864341066  0.03799325278218735  1.0000
  O   O2        1.0  0.13104122341663488  0.7695338784495309  0.9680149758204037  1.0000
  H   H15       1.0  0.7225848336572426  0.42843031905231266  0.09083980507250985  1.0000
  H   H16       1.0  0.05563901973818395  0.7083615591061978  0.7472193011291729  1.0000
  H   H17       1.0  0.9530507943258599  0.6010047783268044  0.6263655915203277  1.0000
  H   H18       1.0  0.7792421566071364  0.45768338810434384  0.5500932969311756  1.0000
  H   H19       1.0  0.08191760928267078  0.695771183673443  0.15483549949631126  1.0000
  Zn  Zn1       1.0  0.8165136780050962  0.5209335412597231  0.401497179783848  1.0000
  Zn  Zn2       1.0  0.981198847291446  0.5122393785741766  0.3987842652819729  1.0000
  C   C29       1.0  0.8980873378871287  0.5132336216419271  0.6633989348978134  1.0000
  C   C30       1.0  0.8996269756943919  0.5199410246002039  0.13688262776410684  1.0000
  C   C31       1.0  0.8974778754764555  0.779990730752087  0.3952275704125118  1.0000
  C   C32       1.0  0.9002363908561721  0.25318218608238335  0.40505406456226356  1.0000
  O   O3        1.0  0.9619492506650554  0.5190526297827223  0.18956534620111615  1.0000
  O   O4        1.0  0.9607573028768006  0.5075222561719226  0.6086567587427087  1.0000
  O   O5        1.0  0.9602643072190188  0.7229320534861134  0.3921065031721517  1.0000
  O   O6        1.0  0.9624421904012301  0.3036428447715982  0.4061154946484009  1.0000
  O   O7        1.0  0.8352702786963611  0.7295300780306944  0.3941659513356275  1.0000
  O   O8        1.0  0.8357632654040845  0.514122013092556  0.6107161355115369  1.0000
  O   O9        1.0  0.8369552187832606  0.5256523206779725  0.19162298972541092  1.0000
  O   O10       1.0  0.8374481582420917  0.31024252633217353  0.40817324621417583  1.0000
