data_image0
_chemical_formula_structural       NC12NC2H8C12ClH9C12IH9Zn2C4O8
_chemical_formula_sum              "N2 C42 H26 Cl1 I1 Zn2 O8"
_cell_length_a       19.240039667572717
_cell_length_b       10.299768534541528
_cell_length_c       10.299773350644648
_cell_angle_alpha    85.54596918474078
_cell_angle_beta     90.00916568916979
_cell_angle_gamma    90.01670575511149

_space_group_name_H-M_alt    "P 1"
_space_group_IT_number       1

loop_
  _space_group_symop_operation_xyz
  'x, y, z'

loop_
  _atom_site_type_symbol
  _atom_site_label
  _atom_site_symmetry_multiplicity
  _atom_site_fract_x
  _atom_site_fract_y
  _atom_site_fract_z
  _atom_site_occupancy
  N   N1        1.0  0.6545763504926595  0.4216714828112204  0.5675338425776251  1.0000
  C   C1        1.0  0.5944279816814738  0.42167156681518403  0.5675337606456077  1.0000
  C   C2        1.0  0.519609944546865  0.4216716841391759  0.5675336233477977  1.0000
  C   C3        1.0  0.48313502013278076  0.35717728339149546  0.6709418211853477  1.0000
  C   C4        1.0  0.41046426213269865  0.3570663783369876  0.6710283568385902  1.0000
  C   C5        1.0  0.37327770960449297  0.42167177676892087  0.5675333956715642  1.0000
  C   C6        1.0  0.41046683550934077  0.48627736212934547  0.4640386290563974  1.0000
  C   C7        1.0  0.48313751404670774  0.48616622154248  0.46412528719614415  1.0000
  C   C8        1.0  0.2960726191444202  0.4216716981360031  0.5675333002512617  1.0000
  C   C9        1.0  0.258870715182889  0.30839999386214423  0.6093970813567249  1.0000
  C   C10       1.0  0.1862000356676676  0.3085069193127803  0.6093057624725693  1.0000
  C   C11       1.0  0.14974033220627422  0.4216715689468802  0.5675333611536209  1.0000
  C   C12       1.0  0.0749222950548523  0.42167145513352566  0.5675336098074566  1.0000
  N   N2        1.0  0.0147739782142211  0.4216714142503366  0.5675338182243148  1.0000
  C   C13       1.0  0.1862281396088022  0.5348362944230716  0.5257609069485694  1.0000
  C   C14       1.0  0.25889884470979324  0.5349434000396927  0.5256694254808916  1.0000
  H   H1        1.0  0.5108490068427947  0.3072441203047134  0.7516800303434021  1.0000
  H   H2        1.0  0.38337029617524515  0.3079309706707851  0.752882121984054  1.0000
  H   H3        1.0  0.3833742706785359  0.5354127968623619  0.38218481306416296  1.0000
  H   H4        1.0  0.5108532988077332  0.5360992842882626  0.3833873538273729  1.0000
  H   H5        1.0  0.285952741437665  0.21923651772410913  0.640559212104822  1.0000
  H   H6        1.0  0.15847417353746898  0.22024231634492586  0.6415009153676474  1.0000
  H   H7        1.0  0.1585241782886265  0.6231008728501213  0.4935657686024173  1.0000
  H   H8        1.0  0.2860032972807535  0.6241069553664567  0.49450724996612805  1.0000
  C   C15       1.0  0.8346129493039756  0.040306066190701546  0.5675316915402402  1.0000
  C   C16       1.0  0.8391787142543775  0.04991092072627468  0.43106298636332635  1.0000
  C   C17       1.0  0.8415590416515858  0.93763840756371  0.3619205969530852  1.0000
  C   C18       1.0  0.8393114593225862  0.8146231988126966  0.43107847627038276  1.0000
  C   C19       1.0  0.8347440593315266  0.8030268152576179  0.5675471193979813  1.0000
  C   C20       1.0  0.8324208938580694  0.9164255824493672  0.6350095017058315  1.0000
  C   C21       1.0  0.8463901644618386  0.9488532107709591  0.21754808346303545  1.0000
  C   C22       1.0  0.8068437387863253  0.042414660178276  0.1430844083044518  1.0000
  C   C23       1.0  0.811452855978965  0.05277455534741638  0.0072048804598563426  1.0000
  C   C24       1.0  0.8555411342830396  0.9700956213440416  0.9440971727137106  1.0000
  C   C25       1.0  0.8950760394896319  0.8768468499812905  0.0170496298138294  1.0000
  C   C26       1.0  0.8905903494933196  0.8660946993533947  0.1529438008761368  1.0000
  Cl  Cl1       1.0  0.8612465149187992  0.9833396941896049  0.7736124513119504  1.0000
  H   H9        1.0  0.8328375063543821  0.36409989504085827  0.6195297329533407  1.0000
  H   H10       1.0  0.8418537579066196  0.14493841936940255  0.3783304821023503  1.0000
  H   H11       1.0  0.8401726849511525  0.727804603478231  0.37813241739824366  1.0000
  H   H12       1.0  0.8288979124835328  0.908247690597419  0.7402888257099083  1.0000
  H   H13       1.0  0.8330313396369868  0.4711543030154301  0.6195529617692246  1.0000
  H   H14       1.0  0.7717064940871463  0.1063771729216194  0.18982780515229325  1.0000
  H   H15       1.0  0.7805893521518127  0.12490457806186807  0.9510932178122653  1.0000
  H   H16       1.0  0.929438025151229  0.8128382070123713  0.9686167578824162  1.0000
  H   H17       1.0  0.9223356759828505  0.7942584143464761  0.20756116064258578  1.0000
  C   C27       1.0  0.8346453838814373  0.4217725389169604  0.18617023467206018  1.0000
  C   C28       1.0  0.8976606267371007  0.4907754142315419  0.17983440968448705  1.0000
  C   C29       1.0  0.9296243441151818  0.5256318847375909  0.05949395921087963  1.0000
  C   C30       1.0  0.897727445239289  0.49056125965115505  0.9445647919604365  1.0000
  C   C31       1.0  0.8347116206578215  0.42156038926471084  0.9489086587869457  1.0000
  C   C32       1.0  0.8035237215983525  0.387551348333838  0.07017956516899804  1.0000
  C   C33       1.0  0.996288940710453  0.5986288493568799  0.05384520271877635  1.0000
  C   C34       1.0  0.007239862815876965  0.7016470197683073  0.1336579125110393  1.0000
  C   C35       1.0  0.07002093612506433  0.77023862923891  0.12813946681729216  1.0000
  C   C36       1.0  0.1225489464660432  0.736879315002843  0.04314943283546868  1.0000
  C   C37       1.0  0.11226860672914074  0.6347473339557601  0.9634794815036942  1.0000
  C   C38       1.0  0.0495580020426698  0.5659297545999833  0.9685919809561142  1.0000
  I   I1        1.0  0.2172001667849117  0.8405171724728693  0.035133277167372697  1.0000
  H   H18       1.0  0.8106135250193586  0.3955443144745503  0.5160329620392161  1.0000
  H   H19       1.0  0.9225183246584164  0.5160221688396347  0.26881178438766273  1.0000
  H   H20       1.0  0.9216682805405781  0.5187487128576519  0.851452558719116  1.0000
  H   H21       1.0  0.7549099406208506  0.33431990744710904  0.07429900627372499  1.0000
  H   H22       1.0  0.8107105253724158  0.39523217574754743  0.6231131160371257  1.0000
  H   H23       1.0  0.9669432128721142  0.7302246796723737  0.19904919939511465  1.0000
  H   H24       1.0  0.07772653696150834  0.8495148595228619  0.18972693879814306  1.0000
  H   H25       1.0  0.15290698831245253  0.6084058822437677  0.8977970992304924  1.0000
  H   H26       1.0  0.04306011304436708  0.48611264238713847  0.9071654077701115  1.0000
  Zn  Zn1       1.0  0.7585216143818978  0.42166799377305386  0.5675413239107674  1.0000
  Zn  Zn2       1.0  0.9108287321955536  0.42166430695824103  0.567536935583836  1.0000
  C   C39       1.0  0.8346966571729127  0.4164268568370397  0.8047346292914611  1.0000
  C   C40       1.0  0.8346553528862551  0.42690708242296926  0.330343757655009  1.0000
  C   C41       1.0  0.8347152440837272  0.6588578329670534  0.5623690647377173  1.0000
  C   C42       1.0  0.834636713741484  0.184474545986806  0.572709391417277  1.0000
  O   O1        1.0  0.8924584550565402  0.4286232173121947  0.37872804354734146  1.0000
  O   O2        1.0  0.8924911330755133  0.41470694413122106  0.7563466388943425  1.0000
  O   O3        1.0  0.8925053631899452  0.6104730229576139  0.5606347307904593  1.0000
  O   O4        1.0  0.8924441729631476  0.23285714780428043  0.5744398542781715  1.0000
  O   O5        1.0  0.7769061216393592  0.6104751529296886  0.5606384052110986  1.0000
  O   O6        1.0  0.7768918917839397  0.41471063441211853  0.7563502441011238  1.0000
  O   O7        1.0  0.7768592136678261  0.42862686277184214  0.37873008735137614  1.0000
  O   O8        1.0  0.7768449315784496  0.2328607839481227  0.5744419954499254  1.0000
