data_image0
_chemical_formula_structural       NC8NH4C6BrH5C6BrH4Zn2C4O8
_chemical_formula_sum              "N2 C24 H13 Br2 Zn2 O8"
_cell_length_a       13.859017124695912
_cell_length_b       9.276564384272257
_cell_length_c       9.27656775626242
_cell_angle_alpha    86.06955747846486
_cell_angle_beta     90.18619718657982
_cell_angle_gamma    90.58596084768166

_space_group_name_H-M_alt    "P 1"
_space_group_IT_number       1

loop_
  _space_group_symop_operation_xyz
  'x, y, z'

loop_
  _atom_site_type_symbol
  _atom_site_label
  _atom_site_symmetry_multiplicity
  _atom_site_fract_x
  _atom_site_fract_y
  _atom_site_fract_z
  _atom_site_occupancy
  N   N1        1.0  0.9158261426749287  0.5626504279150824  0.40931882428776656  1.0000
  C   C1        1.0  0.8431893148987006  0.5392424084040246  0.35319415412420985  1.0000
  C   C2        1.0  0.7528334361321359  0.5101262477794712  0.2833822772787735  1.0000
  C   C3        1.0  0.6655605919516357  0.5385115422674152  0.351440073222951  1.0000
  C   C4        1.0  0.5776031233621559  0.5101274678785994  0.2833816971428522  1.0000
  C   C5        1.0  0.5771008097128679  0.45335039485102646  0.14724463342610195  1.0000
  C   C6        1.0  0.6641924103242065  0.4250742016190254  0.0794488102910147  1.0000
  C   C7        1.0  0.7519661551515499  0.45334805703110076  0.14724581335639897  1.0000
  C   C8        1.0  0.4879494814045893  0.5392433300416783  0.3531936554957138  1.0000
  N   N2        1.0  0.4158772699866428  0.5626507483963303  0.40931860808000775  1.0000
  H   H1        1.0  0.666090603531344  0.5824591948350031  0.4568134213971457  1.0000
  H   H2        1.0  0.5095359367376816  0.43101007463083196  0.09367569608467785  1.0000
  H   H3        1.0  0.6636635432753532  0.38121630134312623  0.9742888603098749  1.0000
  H   H4        1.0  0.8189921277865855  0.43100564595637847  0.0936778766745594  1.0000
  C   C9        1.0  0.16295007153051588  0.1391732447245475  0.4096871859206128  1.0000
  C   C10       1.0  0.15028943713066714  0.22138268217371393  0.27799453492748993  1.0000
  C   C11       1.0  0.14661135787935087  0.15511601609421777  0.14753195551949005  1.0000
  C   C12       1.0  0.1555669162574891  0.005696646929643334  0.14628481182704678  1.0000
  C   C13       1.0  0.16652325139671853  0.9217743746296759  0.2759860481697196  1.0000
  C   C14       1.0  0.16876252831955418  0.9861169553856728  0.40896268806889946  1.0000
  Br  Br1       1.0  0.15124340526162136  0.9155855123792307  0.9672673580901132  1.0000
  H   H5        1.0  0.13518132787495674  0.40401998225242536  0.6439405812452441  1.0000
  H   H6        1.0  0.14552223238351747  0.3380149112331163  0.2755277855774516  1.0000
  H   H7        1.0  0.13771544156006565  0.2203532248681914  0.04716602331827912  1.0000
  H   H8        1.0  0.1709807028583108  0.80550396905945  0.27287952694247175  1.0000
  H   H9        1.0  0.22249394869393724  0.6903823115969623  0.6333760382965488  1.0000
  C   C15       1.0  0.16490684457145058  0.5585008926128137  0.9862017542291079  1.0000
  C   C16       1.0  0.07940142545103956  0.5932170945493003  0.05678292842764332  1.0000
  C   C17       1.0  0.998265234001877  0.6398119573130676  0.9780421127323685  1.0000
  C   C18       1.0  0.001110947764138442  0.6526343635080909  0.8275353000718972  1.0000
  C   C19       1.0  0.08471404637249225  0.6163603652651015  0.7552283967196418  1.0000
  C   C20       1.0  0.16680578351395584  0.5667893834178922  0.8324481866225786  1.0000
  Br  Br2       1.0  0.8900692731602765  0.717566485530311  0.7202295736784423  1.0000
  H   H10       1.0  0.2967466661105087  0.4275182320600623  0.2771479320195154  1.0000
  H   H11       1.0  0.9334028867567693  0.6673066836870609  0.0343360061452771  1.0000
  H   H12       1.0  0.08461274115469265  0.6237266767298213  0.6381716326944211  1.0000
  H   H13       1.0  0.32546537273678444  0.551898534241591  0.5530661322963923  1.0000
  Zn  Zn1       1.0  0.060130091584960965  0.5626467517650322  0.40932709038465687  1.0000
  Zn  Zn2       1.0  0.2715732592271347  0.5626427766467494  0.4093221699250844  1.0000
  C   C21       1.0  0.16640523651173855  0.5594777169919465  0.6724943891500139  1.0000
  C   C22       1.0  0.16530043605779587  0.5658136323078207  0.14615501097176642  1.0000
  C   C23       1.0  0.1676459962878687  0.825970351600172  0.4033578956982313  1.0000
  C   C24       1.0  0.16405959241280765  0.29931926587139657  0.41529158272646804  1.0000
  O   O1        1.0  0.2456740659545773  0.5682600546964616  0.19983492321828433  1.0000
  O   O2        1.0  0.24651206999669387  0.5570271856203752  0.6188103285424045  1.0000
  O   O3        1.0  0.2475129208744842  0.7722233730203889  0.4014807046373321  1.0000
  O   O4        1.0  0.24467314275393104  0.35306387655565663  0.4171644390804483  1.0000
  O   O5        1.0  0.08703013590298302  0.772225651858977  0.4014848212233917  1.0000
  O   O6        1.0  0.0860292967388685  0.5570311962900142  0.6188143668196437  1.0000
  O   O7        1.0  0.08519128852879598  0.5682639981459654  0.19983722918739  1.0000
  O   O8        1.0  0.0841903654958236  0.35306781074880406  0.4171668530865611  1.0000
