data_image0
_chemical_formula_structural       NC12NC2H8C12H10C12H10Zn2C4O8
_chemical_formula_sum              "N2 C42 H28 Zn2 O8"
_cell_length_a       19.240039667572717
_cell_length_b       14.994057918209652
_cell_length_c       14.388202922059104
_cell_angle_alpha    85.84309809662012
_cell_angle_beta     92.42188995312777
_cell_angle_gamma    89.99018167561823

_space_group_name_H-M_alt    "P 1"
_space_group_IT_number       1

loop_
  _space_group_symop_operation_xyz
  'x, y, z'

loop_
  _atom_site_type_symbol
  _atom_site_label
  _atom_site_symmetry_multiplicity
  _atom_site_fract_x
  _atom_site_fract_y
  _atom_site_fract_z
  _atom_site_occupancy
  N   N1        1.0  0.6219270304300607  0.9715612586230765  0.9740774716873085  1.0000
  C   C1        1.0  0.561778659750784  0.9715613160403399  0.9740774130082113  1.0000
  C   C2        1.0  0.4869606194915114  0.9715613961519888  0.9740773146760517  1.0000
  C   C3        1.0  0.4528331894714458  0.9276208793046153  0.04813837023171421  1.0000
  C   C4        1.0  0.38016441000941764  0.927544999213748  0.048200345949101164  1.0000
  C   C5        1.0  0.3406283793928084  0.9715614589841484  0.9740771516130593  1.0000
  C   C6        1.0  0.3754680315496318  0.015578047841064068  0.8999540966217776  1.0000
  C   C7        1.0  0.44814069144498  0.015502006386772977  0.9000161600607555  1.0000
  C   C8        1.0  0.26342328680071936  0.971561404635352  0.9740770832700194  1.0000
  C   C9        1.0  0.2271932848869023  0.8938991860663974  0.004058121169139283  1.0000
  C   C10       1.0  0.1545205199692369  0.8939723157312753  0.00399271954961622  1.0000
  C   C11       1.0  0.11709100126767397  0.9715613161057759  0.9740771268864206  1.0000
  C   C12       1.0  0.04227296975080299  0.9715612387955881  0.9740773049734215  1.0000
  N   N2        1.0  0.9821246576194708  0.9715612114418299  0.9740774542436706  1.0000
  C   C13       1.0  0.1526089922188602  0.04915036839268124  0.9441614963470508  1.0000
  C   C14       1.0  0.2252776082070925  0.04922362124820592  0.9440959782867115  1.0000
  H   H1        1.0  0.48237992934479923  0.8936034130852017  0.10596316597219563  1.0000
  H   H2        1.0  0.3549281525943241  0.8940794348937272  0.10682413561523356  1.0000
  H   H3        1.0  0.3465177570233305  0.04904363057582438  0.8413302705390385  1.0000
  H   H4        1.0  0.47402372928571257  0.049519404645471846  0.8421915618423528  1.0000
  H   H5        1.0  0.2549999636510607  0.8327599632494136  0.026374995189168984  1.0000
  H   H6        1.0  0.12754237983759886  0.8334541658037059  0.02704947772599542  1.0000
  H   H7        1.0  0.1241573092342251  0.10966850151357987  0.9211047485902994  1.0000
  H   H8        1.0  0.2516574072397405  0.11036289830490208  0.9217790722058353  1.0000
  C   C15       1.0  0.8020578362488032  0.7095930093103292  0.9740678614107873  1.0000
  C   C16       1.0  0.8442680185537051  0.6574656234412504  0.03908894670891852  1.0000
  C   C17       1.0  0.8442344619956105  0.564242155428051  0.03912744085335407  1.0000
  C   C18       1.0  0.8020488248463956  0.521092306841138  0.9741173798999007  1.0000
  C   C19       1.0  0.759877955878018  0.5733189168718749  0.9090989466904515  1.0000
  C   C20       1.0  0.7598673287478518  0.6665426438101414  0.9091096988644263  1.0000
  C   C21       1.0  0.8020327970425574  0.4220178416573394  0.9741250171724388  1.0000
  C   C22       1.0  0.8004352638463041  0.3801942875310096  0.8897252626507557  1.0000
  C   C23       1.0  0.8004489605913689  0.2869698939447479  0.8897244867065678  1.0000
  C   C24       1.0  0.8020007990777879  0.23352264180919724  0.9740950784045268  1.0000
  C   C25       1.0  0.8035699230991062  0.27524437802031243  0.05852971211436053  1.0000
  C   C26       1.0  0.8036149132735203  0.3684651492259765  0.0585307031499607  1.0000
  H   H9        1.0  0.7594371009957839  0.9269729581447153  0.9082478828505528  1.0000
  H   H10       1.0  0.8775170061088117  0.6886888160399542  0.089880774245399  1.0000
  H   H11       1.0  0.8779731794689286  0.5259430872947533  0.08930181675709487  1.0000
  H   H12       1.0  0.7261287182478711  0.5420193629322316  0.8589328931760473  1.0000
  H   H13       1.0  0.7266238480101704  0.7048199439073115  0.8583034974649983  1.0000
  H   H14       1.0  0.8001167120094426  0.4195911619467839  0.8235899076518268  1.0000
  H   H15       1.0  0.7994199836127439  0.2568386074939313  0.823529865092031  1.0000
  H   H16       1.0  0.8003310309063324  0.026669945221408094  0.8887134535933159  1.0000
  H   H17       1.0  0.8045874399461471  0.2358766322411691  0.12471805905039585  1.0000
  H   H18       1.0  0.8039455757366133  0.3986663818798708  0.1246636634181687  1.0000
  C   C27       1.0  0.7933973974715484  0.970295283115817  0.7009394403920863  1.0000
  C   C28       1.0  0.7235481213811805  0.9594592448669665  0.7242694978438182  1.0000
  C   C29       1.0  0.6716306330286361  0.9512758011644323  0.6546837626523434  1.0000
  C   C30       1.0  0.6886275663729172  0.9537981928365393  0.5611785477521265  1.0000
  C   C31       1.0  0.7580934699029903  0.9646514056368973  0.5360599828979841  1.0000
  C   C32       1.0  0.8101934469515798  0.9728202326340455  0.6065894158340961  1.0000
  C   C33       1.0  0.7762034983617304  0.9674546979195036  0.4365483417871975  1.0000
  C   C34       1.0  0.744300155776784  0.9088257197644094  0.37595063094901837  1.0000
  C   C35       1.0  0.761359611317054  0.9114379221328062  0.2823237668729248  1.0000
  C   C36       1.0  0.8106612352924799  0.972820394798338  0.24722352193653913  1.0000
  C   C37       1.0  0.8425293901692977  0.031472247077353604  0.30770766753816803  1.0000
  C   C38       1.0  0.8255089896534743  0.028808788639439253  0.40135479752836517  1.0000
  H   H19       1.0  0.9559514736181464  0.9954910910378105  0.8006762003434178  1.0000
  H   H20       1.0  0.7089878851051774  0.9573092202148846  0.7962759936862247  1.0000
  H   H21       1.0  0.6179517906671522  0.9431886794394237  0.6732873873682581  1.0000
  H   H22       1.0  0.6473233759744915  0.9484561499805552  0.5084007808870771  1.0000
  H   H23       1.0  0.8639612640467146  0.9799206669952327  0.5879358716057971  1.0000
  H   H24       1.0  0.7067660657656561  0.8600565571744025  0.4012489718851122  1.0000
  H   H25       1.0  0.7360261476784106  0.865189139816075  0.23750583942235626  1.0000
  H   H26       1.0  0.8906497442761324  0.039503048932628904  0.04634986612501747  1.0000
  H   H27       1.0  0.880558879202225  0.07970386626822099  0.282714479778909  1.0000
  H   H28       1.0  0.8502918737360354  0.07564411044590644  0.4459884998068686  1.0000
  Zn  Zn1       1.0  0.7258724638639507  0.971558888123324  0.9740828298505531  1.0000
  Zn  Zn2       1.0  0.8781794836447905  0.9715563402033465  0.974079686790454  1.0000
  C   C39       1.0  0.807396821927732  0.968789199097421  0.14396393370583094  1.0000
  C   C40       1.0  0.7966567915314278  0.974327155216732  0.8041986742526834  1.0000
  C   C41       1.0  0.8018908520302589  0.13447166259612042  0.97038340328145  1.0000
  C   C42       1.0  0.8021627111410293  0.8086436201519707  0.9777792542121766  1.0000
  O   O1        1.0  0.855550394628812  0.9756754295170045  0.8388522234439144  1.0000
  O   O2        1.0  0.8641007143111112  0.9674383167605483  0.10930773121570964  1.0000
  O   O3        1.0  0.8596538253830729  0.1012290058600391  0.9691402248512446  1.0000
  O   O4        1.0  0.8599972293801068  0.8418847464776166  0.9790196600686136  1.0000
  O   O5        1.0  0.7440546661535683  0.10123048185087134  0.9691428565685727  1.0000
  O   O6        1.0  0.7485015533944129  0.9674408643192607  0.10931031339410613  1.0000
  O   O7        1.0  0.7399511984209555  0.9756779408195703  0.838853687322535  1.0000
  O   O8        1.0  0.7443980353739283  0.841887251721898  0.9790211936831812  1.0000
