data_image0
_chemical_formula_structural       NC6NCNCH5C6NH7C7ONH5Zn2C4O8
_chemical_formula_sum              "N5 C25 H17 O9 Zn2"
_cell_length_a       14.933214217465613
_cell_length_b       9.274771166103582
_cell_length_c       9.273042158839658
_cell_angle_alpha    86.05644510922068
_cell_angle_beta     90.05893816914777
_cell_angle_gamma    90.63112361825276

_space_group_name_H-M_alt    "P 1"
_space_group_IT_number       1

loop_
  _space_group_symop_operation_xyz
  'x, y, z'

loop_
  _atom_site_type_symbol
  _atom_site_label
  _atom_site_symmetry_multiplicity
  _atom_site_fract_x
  _atom_site_fract_y
  _atom_site_fract_z
  _atom_site_occupancy
  N   N1        1.0  0.85173619866888  0.5627606342258766  0.4063817703687773  1.0000
  C   C1        1.0  0.7742513184754892  0.5637471688460152  0.40538952854020055  1.0000
  C   C2        1.0  0.6778595848633273  0.5649771241362285  0.40415232585187066  1.0000
  C   C3        1.0  0.6295183110952614  0.4701893217304336  0.49950797171434297  1.0000
  C   C4        1.0  0.5359907311393289  0.4712611678144052  0.49842973437849897  1.0000
  C   C5        1.0  0.4899017748508184  0.5670665077093779  0.40205049231166856  1.0000
  C   C6        1.0  0.39331486559613354  0.5649792596156439  0.40415025125103493  1.0000
  N   N2        1.0  0.3158197285821314  0.5632380296421349  0.4059015409439004  1.0000
  C   C7        1.0  0.5383483414790994  0.6630512229363945  0.3054908926740283  1.0000
  N   N3        1.0  0.4935796689807685  0.7626297778303522  0.20531606873687513  1.0000
  C   C8        1.0  0.6323510649236945  0.6610230842877284  0.3075312987600829  1.0000
  H   H1        1.0  0.664108372046727  0.3954555137838819  0.5746894426649272  1.0000
  H   H2        1.0  0.4995032142876781  0.3971560309563133  0.5729786389859859  1.0000
  H   H3        1.0  0.5303187679202914  0.8329617199842325  0.13456274921113434  1.0000
  H   H4        1.0  0.4238670856832696  0.7679282068121702  0.19998597070697288  1.0000
  H   H5        1.0  0.6699589521251759  0.7343825998300448  0.23373231627108648  1.0000
  C   C9        1.0  0.08103384771383881  0.13940821369373643  0.40693013357242164  1.0000
  C   C10       1.0  0.06028838822009955  0.22133804647596933  0.2780591235852619  1.0000
  C   C11       1.0  0.04790287677966146  0.1549097279716194  0.14836169652300882  1.0000
  C   C12       1.0  0.05630875660745984  0.005164255464376933  0.14659572851645164  1.0000
  C   C13       1.0  0.07539639481758376  0.9218946401693423  0.2736978481153929  1.0000
  C   C14       1.0  0.08653059370696846  0.9865794889334236  0.40536571892193973  1.0000
  N   N4        1.0  0.027706069839810166  0.23992470249330178  0.01807351584127082  1.0000
  H   H6        1.0  0.18215408435436908  0.2224949576172883  0.7222650446196244  1.0000
  H   H7        1.0  0.055772629531306156  0.3379202781418684  0.2775101398890063  1.0000
  H   H8        1.0  0.047203185567225935  0.9526165190613246  0.04680620505345679  1.0000
  H   H9        1.0  0.07933835616038931  0.8056912017774936  0.26956586356515655  1.0000
  H   H10       1.0  0.1510119712975181  0.6918399212665138  0.6199095743597423  1.0000
  H   H11       1.0  0.02153621796054785  0.3519917642831769  0.018033085718144104  1.0000
  H   H12       1.0  0.018687361189064552  0.19141922917512713  0.9206542461904874  1.0000
  C   C15       1.0  0.08332508149378492  0.5585353524100776  0.9828916814931583  1.0000
  C   C16       1.0  0.0011362778168475527  0.5676362045069536  0.055640631380325274  1.0000
  C   C17       1.0  0.9206550939386542  0.5906912226316465  0.979425173259103  1.0000
  C   C18       1.0  0.9228478697767903  0.6029036062926668  0.8279017376644702  1.0000
  C   C19       1.0  0.0035569556266468183  0.5916834140594505  0.7541487849589861  1.0000
  C   C20       1.0  0.08423937328949349  0.5674522745375923  0.8294041690020095  1.0000
  C   C21       1.0  0.8351484043334979  0.6005611594286195  0.059355347850393196  1.0000
  O   O1        1.0  0.8288037103573237  0.5447345288599427  0.1868352420770063  1.0000
  N   N5        1.0  0.7594522468202481  0.6736627809557739  0.9957625626906887  1.0000
  H   H13       1.0  0.30094553574724925  0.6138566843361293  0.082525181066055  1.0000
  H   H14       1.0  0.8620447856017702  0.6171030607710717  0.7653152780100942  1.0000
  H   H15       1.0  0.2308790001440073  0.5980213342849927  0.5462746841126682  1.0000
  H   H16       1.0  0.7641689492212319  0.735956660203926  0.8979772439148969  1.0000
  H   H17       1.0  0.6989256795811578  0.6734381659846994  0.05206795152816657  1.0000
  Zn  Zn1       1.0  0.98566066513789  0.5628946175068972  0.40625152571870426  1.0000
  Zn  Zn2       1.0  0.18189518345373928  0.5630923373941699  0.40604364370732404  1.0000
  C   C22       1.0  0.08402724667569128  0.5600203449173389  0.6694057732699428  1.0000
  C   C23       1.0  0.08353075675256538  0.565968433668002  0.14288953199163257  1.0000
  C   C24       1.0  0.08548076818447425  0.8263855474212338  0.39991782450357327  1.0000
  C   C25       1.0  0.08207715712105594  0.2996014988587481  0.4123775608726965  1.0000
  O   O2        1.0  0.1580697194331937  0.5685317842980426  0.19650739369850845  1.0000
  O   O3        1.0  0.15842573533046167  0.5576059665463989  0.615629721028937  1.0000
  O   O4        1.0  0.15959847005883177  0.7726992509914916  0.398016294021899  1.0000
  O   O5        1.0  0.15689691769350755  0.3534385089658656  0.4141207126876998  1.0000
  O   O6        1.0  0.01065886393291282  0.7725484458692191  0.39817445680168384  1.0000
  O   O7        1.0  0.009486140362061413  0.5574568936635038  0.6157878037573836  1.0000
  O   O8        1.0  0.009130122326614037  0.568382642894939  0.19666374362397912  1.0000
  O   O9        1.0  0.007957320633035891  0.35328935838386477  0.41427717069437353  1.0000
