data_image0
_chemical_formula_structural       NC12NC2H8C13OH12C13F3H9Zn2C4O8
_chemical_formula_sum              "N2 C44 H29 O9 F3 Zn2"
_cell_length_a       19.240039667572717
_cell_length_b       10.299150109392551
_cell_length_c       10.298532869026799
_cell_angle_alpha    85.5582241043329
_cell_angle_beta     90.00547390957907
_cell_angle_gamma    89.97992514300192

_space_group_name_H-M_alt    "P 1"
_space_group_IT_number       1

loop_
  _space_group_symop_operation_xyz
  'x, y, z'

loop_
  _atom_site_type_symbol
  _atom_site_label
  _atom_site_symmetry_multiplicity
  _atom_site_fract_x
  _atom_site_fract_y
  _atom_site_fract_z
  _atom_site_occupancy
  N   N1        1.0  0.654137330201513  0.4209424458176741  0.5668826767540323  1.0000
  C   C1        1.0  0.5939889613642927  0.4209425297801799  0.5668825947837384  1.0000
  C   C2        1.0  0.519170924194114  0.4209426470325973  0.5668824574307796  1.0000
  C   C3        1.0  0.48271458624547126  0.35650429503859904  0.670323037161473  1.0000
  C   C4        1.0  0.4100438633660201  0.35639343178118255  0.6704096217478723  1.0000
  C   C5        1.0  0.3728386892277867  0.42094273953451  0.5668822297021836  1.0000
  C   C6        1.0  0.4100091934516307  0.4854922343494284  0.46335503215105334  1.0000
  C   C7        1.0  0.48267990718633647  0.4853811356117703  0.4634417393233449  1.0000
  C   C8        1.0  0.2956335987980405  0.4209426608374829  0.5668821343049815  1.0000
  C   C9        1.0  0.2584691748256382  0.307685829650938  0.6087924525263493  1.0000
  C   C10       1.0  0.1857984617230189  0.30779271008739184  0.6087010858815238  1.0000
  C   C11       1.0  0.149301311902186  0.4209425316731894  0.5668821952613905  1.0000
  C   C12       1.0  0.07448327478127369  0.4209424179983104  0.5668824439772644  1.0000
  N   N2        1.0  0.014334957947480293  0.42094237723607814  0.5668826524252149  1.0000
  C   C13       1.0  0.18575167292103978  0.5340924290762579  0.5250632517221565  1.0000
  C   C14       1.0  0.2584223443783408  0.5341994895976385  0.5249717224126886  1.0000
  H   H1        1.0  0.5104429396273606  0.3066149311127555  0.7510863672521573  1.0000
  H   H2        1.0  0.38296395130380934  0.3073025618794258  0.7522882843771015  1.0000
  H   H3        1.0  0.38290257471804073  0.5345831312900227  0.3814763186609127  1.0000
  H   H4        1.0  0.5103813253004269  0.5352703993525242  0.3826786850808217  1.0000
  H   H5        1.0  0.28558076600304877  0.21853298981234734  0.6399910831514126  1.0000
  H   H6        1.0  0.1581018198433624  0.21953944174045836  0.6409324703210513  1.0000
  H   H7        1.0  0.1580184913582526  0.6223456728888848  0.49283188184204246  1.0000
  H   H8        1.0  0.28549723200100047  0.623352408605292  0.4937730469872786  1.0000
  C   C15       1.0  0.8343049953549393  0.03954282257794795  0.5670267839331178  1.0000
  C   C16       1.0  0.833031912320711  0.027780765623862884  0.703847235880962  1.0000
  C   C17       1.0  0.8323259435883362  0.9046824719244968  0.772954396010028  1.0000
  C   C18       1.0  0.832897891169408  0.7925253090008311  0.7034838150919192  1.0000
  C   C19       1.0  0.8341739693011304  0.8023319863693974  0.5667497682547797  1.0000
  C   C20       1.0  0.8348719756475429  0.9263014042527289  0.49932031585632713  1.0000
  C   C21       1.0  0.8309731014565318  0.893221271950657  0.917604792084418  1.0000
  C   C22       1.0  0.7882393943319582  0.8003619798925268  0.9856310441781895  1.0000
  C   C23       1.0  0.7869433448099563  0.7896584114760308  0.12174692232341165  1.0000
  C   C24       1.0  0.8288134331083601  0.8706562545539581  0.19229722093317292  1.0000
  C   C25       1.0  0.870882228362493  0.9644693791297272  0.12491358621897819  1.0000
  C   C26       1.0  0.8721944113026158  0.9753487444868504  0.9887974193372119  1.0000
  C   C27       1.0  0.8259593384212457  0.8615087801045193  0.3383938742924606  1.0000
  O   O1        1.0  0.7740141462762131  0.9446965855557465  0.3786373995562462  1.0000
  H   H9        1.0  0.8362564561132388  0.26903709228203754  0.30877176938606254  1.0000
  H   H10       1.0  0.8316229200321903  0.11456913603436414  0.7568595806998868  1.0000
  H   H11       1.0  0.833297197649405  0.697417650791311  0.7563210845062198  1.0000
  H   H12       1.0  0.8358542862201156  0.9345817965142899  0.3938532541243402  1.0000
  H   H13       1.0  0.8346180136681743  0.47862851043237775  0.5141570583217108  1.0000
  H   H14       1.0  0.7549982152713763  0.7373387790291023  0.9335186529338356  1.0000
  H   H15       1.0  0.7531364723496404  0.7183428759748844  0.17212606968200028  1.0000
  H   H16       1.0  0.9028432175257234  0.02904575893277329  0.1777722364637162  1.0000
  H   H17       1.0  0.9060246129001948  0.04710993848604274  0.9392249725632231  1.0000
  H   H18       1.0  0.8770853703951345  0.8893491849393892  0.37856672628638666  1.0000
  H   H19       1.0  0.8146664468803433  0.7594980526538437  0.37620914540433736  1.0000
  H   H20       1.0  0.7742766215009196  0.9350463479375516  0.47527094722384355  1.0000
  C   C28       1.0  0.8342195270278366  0.42081547300380123  0.18549082658306237  1.0000
  C   C29       1.0  0.9039188510443822  0.37992082960087514  0.18771877875687704  1.0000
  C   C30       1.0  0.9392360002531653  0.3593178834243425  0.07167680031967572  1.0000
  C   C31       1.0  0.9039598384618259  0.3801764668138583  0.952418009383914  1.0000
  C   C32       1.0  0.8342594334428264  0.42105940444760215  0.9482857122377019  1.0000
  C   C33       1.0  0.7998343971787475  0.44111265574728603  0.06531958746799305  1.0000
  C   C34       1.0  0.012924781349237469  0.3160946811025642  0.0749667099702791  1.0000
  C   C35       1.0  0.06090616607787025  0.37069949737066127  0.9834052073039499  1.0000
  C   C36       1.0  0.1302571706634403  0.3301227980849101  0.9865229024432911  1.0000
  C   C37       1.0  0.15288905254439641  0.23271892847543765  0.08002978177446018  1.0000
  C   C38       1.0  0.1053096713968733  0.17993330271832564  0.17316795058611412  1.0000
  C   C39       1.0  0.035963185379459084  0.22054305961772402  0.17016116442053342  1.0000
  C   C40       1.0  0.22825087805559297  0.19242915063041632  0.08632792941236689  1.0000
  F   F1        1.0  0.2638808320364436  0.27175005226525095  0.16578379718691938  1.0000
  F   F2        1.0  0.25784818150871897  0.20360320784501384  0.963466657088774  1.0000
  F   F3        1.0  0.23470947456898106  0.06429779566482607  0.1362605546524409  1.0000
  H   H21       1.0  0.7026460582033344  0.4989097317495581  0.3885424567947935  1.0000
  H   H22       1.0  0.9311391290550669  0.3657601512102897  0.27980292172179433  1.0000
  H   H23       1.0  0.9306551122955784  0.3627935520082912  0.8627936402345372  1.0000
  H   H24       1.0  0.7461155240901145  0.4726257164424823  0.06286933844034981  1.0000
  H   H25       1.0  0.7024237170615774  0.4975700011396114  0.7332086719669264  1.0000
  H   H26       1.0  0.04505509222434821  0.44646981091438437  0.9106484040567103  1.0000
  H   H27       1.0  0.16628254319632574  0.37535269738715304  0.9160211860572315  1.0000
  H   H28       1.0  0.12171590689089283  0.10705475574859326  0.24836658156749045  1.0000
  H   H29       1.0  0.0001879804244608847  0.1762672632672848  0.2416822112688974  1.0000
  Zn  Zn1       1.0  0.7580825950309384  0.42093896094006406  0.5668901599785414  1.0000
  Zn  Zn2       1.0  0.9103897142635357  0.4209352711705557  0.5668857727410133  1.0000
  C   C41       1.0  0.8342512303303201  0.4158391846581866  0.8041030168841803  1.0000
  C   C42       1.0  0.8342227418783362  0.4260366862043201  0.3296730426682699  1.0000
  C   C43       1.0  0.8341948871994469  0.6581469813324157  0.5616265530439748  1.0000
  C   C44       1.0  0.8342790333090978  0.1837273291253783  0.5721495763205144  1.0000
  O   O2        1.0  0.8920235797783803  0.427781906605234  0.37806024863140975  1.0000
  O   O3        1.0  0.8920479719297127  0.4140901838867159  0.7557121075911297  1.0000
  O   O4        1.0  0.8920016950412503  0.609756794552194  0.559910647010921  1.0000
  O   O5        1.0  0.8920698046880492  0.23211530520084603  0.5738616118277904  1.0000
  O   O6        1.0  0.7764024526314793  0.6097589269124444  0.5599143208864286  1.0000
  O   O7        1.0  0.7764487292451084  0.41409387665434955  0.7557157116492632  1.0000
  O   O8        1.0  0.7764243370660762  0.4277855536139503  0.3780622911885132  1.0000
  O   O9        1.0  0.7764705619795934  0.232118942951143  0.5738637517633873  1.0000
