data_image0
_chemical_formula_structural       NC9NC3NH7C6SCNH4C7OCH9Zn2C4O8
_chemical_formula_sum              "N4 C31 H20 S1 O9 Zn2"
_cell_length_a       16.053384444249904
_cell_length_b       10.302215558581763
_cell_length_c       10.300835455316061
_cell_angle_alpha    85.57681831436595
_cell_angle_beta     89.8165277291342
_cell_angle_gamma    89.19414689339631

_space_group_name_H-M_alt    "P 1"
_space_group_IT_number       1

loop_
  _space_group_symop_operation_xyz
  'x, y, z'

loop_
  _atom_site_type_symbol
  _atom_site_label
  _atom_site_symmetry_multiplicity
  _atom_site_fract_x
  _atom_site_fract_y
  _atom_site_fract_z
  _atom_site_occupancy
  N   N1        1.0  0.7844717389131349  0.4033351989758344  0.5649043311373807  1.0000
  C   C1        1.0  0.7337011433780944  0.3825153250588  0.4900667971208208  1.0000
  C   C2        1.0  0.6706071783467137  0.35664640933992464  0.3971003356970383  1.0000
  C   C3        1.0  0.6842024770864021  0.3445487573669592  0.2663876023475964  1.0000
  C   C4        1.0  0.6075651586431372  0.31921905264123085  0.2141398846756517  1.0000
  C   C5        1.0  0.5504843634489173  0.3172729756446868  0.31579440706633394  1.0000
  C   C6        1.0  0.459825341822009  0.2934560481271655  0.3055467010888194  1.0000
  C   C7        1.0  0.4039524209408238  0.33617417143468087  0.3994427313648644  1.0000
  C   C8        1.0  0.3183976222008599  0.3135860190879516  0.3896273900519816  1.0000
  C   C9        1.0  0.2617453544967659  0.35804896062440816  0.4858951242498855  1.0000
  N   N2        1.0  0.2162135906491539  0.39379089534934586  0.5632793067092374  1.0000
  C   C10       1.0  0.2879896926403598  0.24816779122101404  0.28592971400655914  1.0000
  C   C11       1.0  0.342854118436233  0.20556928795021648  0.19224533049156767  1.0000
  C   C12       1.0  0.4282028573787643  0.22799168784077703  0.20166413663536403  1.0000
  N   N3        1.0  0.589694391764996  0.34025883161005566  0.4273333141896347  1.0000
  H   H1        1.0  0.7429311309664647  0.3531724233519873  0.21478114316838592  1.0000
  H   H2        1.0  0.5952868738717314  0.3054313917665523  0.11297985305360592  1.0000
  H   H3        1.0  0.4262931608531758  0.3886332060639483  0.4792336071077313  1.0000
  H   H4        1.0  0.221962351724231  0.23020433453129074  0.27749660613445926  1.0000
  H   H5        1.0  0.3192233575243427  0.15475154076300401  0.11222082208516504  1.0000
  H   H6        1.0  0.4693036733825247  0.19254380887091838  0.12842463988759012  1.0000
  H   H7        1.0  0.5635446631497968  0.34264231175140325  0.5200773384785106  1.0000
  C   C13       1.0  0.00026388830102819195  0.017292587717270266  0.5640563561511993  1.0000
  C   C14       1.0  0.083764261712723  0.011384095251671937  0.6046010078250715  1.0000
  C   C15       1.0  0.12531771906045508  0.8914031557131488  0.6251883936022298  1.0000
  C   C16       1.0  0.08398081924779512  0.7762041235534825  0.6047101413555903  1.0000
  C   C17       1.0  0.00042936713470309796  0.779823350295713  0.5641384267334196  1.0000
  C   C18       1.0  0.959020384497118  0.9008758066977592  0.5440846436537866  1.0000
  S   S1        1.0  0.23199794933195017  0.8853777898564829  0.6764101963915676  1.0000
  C   C19       1.0  0.20454631992716532  0.8731885251056106  0.8429082657073171  1.0000
  N   N4        1.0  0.18652399793107913  0.8651983744038739  0.952062087737146  1.0000
  H   H8        1.0  0.11684346180329941  0.09962970135995741  0.6205888784586399  1.0000
  H   H9        1.0  0.11720846050306455  0.6841647118832728  0.6207728840201008  1.0000
  H   H10       1.0  0.8946214931984608  0.9045830166090877  0.5128332028971494  1.0000
  H   H11       1.0  0.8429706225383513  0.5794373087850353  0.48753174120820764  1.0000
  C   C20       1.0  0.00027093003660327793  0.39849341338551597  0.18278114651113486  1.0000
  C   C21       1.0  0.07674973791563566  0.4632281340191211  0.1765641164790153  1.0000
  C   C22       1.0  0.11478620486815005  0.49721814408932036  0.05621153317618566  1.0000
  C   C23       1.0  0.07694874488688822  0.4633962664184154  0.9412646011945741  1.0000
  C   C24       1.0  0.0004223688486306734  0.39862253684825566  0.9454136947429684  1.0000
  C   C25       1.0  0.9624400215117143  0.36683218407536966  0.06660220633721782  1.0000
  C   C26       1.0  0.19777587506633568  0.5630570361612044  0.05094124728273797  1.0000
  O   O1        1.0  0.26142194684271747  0.4668820587579489  0.05819947588375075  1.0000
  C   C27       1.0  0.33968819752578994  0.5274684595540928  0.053371754538145584  1.0000
  H   H12       1.0  0.1070554775634387  0.48745370669591037  0.2651912543115221  1.0000
  H   H13       1.0  0.10739097834393664  0.487738447859809  0.8487164084945295  1.0000
  H   H14       1.0  0.9034602508115905  0.3168960438721642  0.07063469748117468  1.0000
  H   H15       1.0  0.8565233020700757  0.275127922856643  0.7460887924262958  1.0000
  H   H16       1.0  0.20219820835937852  0.6263334049680984  0.13361411135481016  1.0000
  H   H17       1.0  0.20239123988908994  0.6263489413565793  0.9584993390306968  1.0000
  H   H18       1.0  0.3890243467887422  0.45077538066826994  0.05915540537845865  1.0000
  H   H19       1.0  0.3481284240950331  0.5875685629631651  0.1374894122265511  1.0000
  H   H20       1.0  0.34833184953252627  0.587618223157408  0.9599776363703525  1.0000
  Zn  Zn1       1.0  0.909063109653151  0.40057745775372267  0.5644428756206475  1.0000
  Zn  Zn2       1.0  0.09162219626064762  0.39653806070123454  0.5637513738696707  1.0000
  C   C28       1.0  0.00039074817905327455  0.3934258421846788  0.8012592429451811  1.0000
  C   C29       1.0  0.00029655165516784466  0.40369127037800534  0.32693512661920204  1.0000
  C   C30       1.0  0.00039279479209009476  0.6356880464057963  0.5589484998711546  1.0000
  C   C31       1.0  0.0002944424226465348  0.16142750764750868  0.569245938990301  1.0000
  O   O2        1.0  0.06958537122786046  0.40389712426013324  0.3750520972857441  1.0000
  O   O3        1.0  0.069660050924917  0.3901531998723169  0.7526170645500259  1.0000
  O   O4        1.0  0.06966076992838155  0.5857830144978728  0.5569494288120163  1.0000
  O   O5        1.0  0.06958458991203043  0.20826732028428552  0.5707196358994923  1.0000
  O   O6        1.0  0.9311006537033105  0.5888481995505321  0.5574746138199715  1.0000
  O   O7        1.0  0.9310999350208725  0.3932199448142152  0.7531421804900542  1.0000
  O   O8        1.0  0.9310252550594257  0.40696382369217  0.37557565203557686  1.0000
  O   O9        1.0  0.9310244737575033  0.21133401044647424  0.5712432880027323  1.0000
