data_image0
_chemical_formula_structural       NC8NC6H8C6ClH3C7H7Zn2C4O8
_chemical_formula_sum              "N2 C31 H18 Cl1 Zn2 O8"
_cell_length_a       17.457602349358154
_cell_length_b       10.30297070629231
_cell_length_c       9.27434533087231
_cell_angle_alpha    85.12371235536625
_cell_angle_beta     92.4462132353122
_cell_angle_gamma    91.68807172504815

_space_group_name_H-M_alt    "P 1"
_space_group_IT_number       1

loop_
  _space_group_symop_operation_xyz
  'x, y, z'

loop_
  _atom_site_type_symbol
  _atom_site_label
  _atom_site_symmetry_multiplicity
  _atom_site_fract_x
  _atom_site_fract_y
  _atom_site_fract_z
  _atom_site_occupancy
  N   N1        1.0  0.7286733732227837  0.46314592093531615  0.47424767240640237  1.0000
  C   C1        1.0  0.6676437328959174  0.4173189645440596  0.46245514398545123  1.0000
  C   C2        1.0  0.5917202338875724  0.36031586839370217  0.4477958383607236  1.0000
  C   C3        1.0  0.5328508780271441  0.39987657823620676  0.5309962757538713  1.0000
  C   C4        1.0  0.4583626665793033  0.34498623271329576  0.5170195215864637  1.0000
  C   C5        1.0  0.3958822985636665  0.38675464253741315  0.6051319402864364  1.0000
  C   C6        1.0  0.3215893170780149  0.4056549180991946  0.5431867857770434  1.0000
  C   C7        1.0  0.2627194672634613  0.4450309144804465  0.6265071440154795  1.0000
  C   C8        1.0  0.1869984091437002  0.4645542427635227  0.5621009343698411  1.0000
  N   N2        1.0  0.126131594235438  0.48024461989026124  0.5103185096066734  1.0000
  C   C9        1.0  0.277648122864762  0.4657457048872964  0.7723375459208806  1.0000
  C   C10       1.0  0.3511546370685504  0.447231246275273  0.8347132656204717  1.0000
  C   C11       1.0  0.4100107996805227  0.40803165165548444  0.751901369243348  1.0000
  C   C12       1.0  0.4440389755164846  0.2498692293384521  0.4182505644712149  1.0000
  C   C13       1.0  0.502894793522481  0.21058396814106903  0.3354944726405862  1.0000
  C   C14       1.0  0.5765957374572693  0.26558233447452956  0.3500821411131698  1.0000
  H   H1        1.0  0.5448918001140206  0.47452331319675256  0.605013315177992  1.0000
  H   H2        1.0  0.3097084501087206  0.3914906198467736  0.42985241525852924  1.0000
  H   H3        1.0  0.23251949294125757  0.49615646112875483  0.8376956101519188  1.0000
  H   H4        1.0  0.36252349109688  0.4629556304532272  0.9476329979940569  1.0000
  H   H5        1.0  0.4662866641554485  0.39268266723947404  0.8031189366862095  1.0000
  H   H6        1.0  0.38760277753033784  0.2046320333536946  0.4064179154563503  1.0000
  H   H7        1.0  0.4913731327099205  0.13706274197962998  0.2601462725292125  1.0000
  H   H8        1.0  0.6217220860403078  0.2342981490065177  0.2852918623939802  1.0000
  C   C15       1.0  0.9274061104859289  0.09044792097000241  0.4922896451145919  1.0000
  C   C16       1.0  0.0064846725168252765  0.09051539527812125  0.5272637984785253  1.0000
  C   C17       1.0  0.04572134476941915  0.9735920310314067  0.5446169390598756  1.0000
  C   C18       1.0  0.006484672182410558  0.8554074270612307  0.5272637305748626  1.0000
  C   C19       1.0  0.9274061183324183  0.8529328625513277  0.4922897284413053  1.0000
  C   C20       1.0  0.8882523097298768  0.9710611240674805  0.47497310329238274  1.0000
  Cl  Cl1       1.0  0.1445093100962725  0.9751798401629462  0.588307889936381  1.0000
  H   H9        1.0  0.03793613897869809  0.18106749683426043  0.5411737453881207  1.0000
  H   H10       1.0  0.037936109074071536  0.7658663034336892  0.5411736389864534  1.0000
  H   H11       1.0  0.8272645230625052  0.9700807588876992  0.44799993839598984  1.0000
  C   C21       1.0  0.9291410705531556  0.4746841403088637  0.06864465854938029  1.0000
  C   C22       1.0  0.8834765341449702  0.5641673007281236  0.12976000806404575  1.0000
  C   C23       1.0  0.8332269082106457  0.6430125361469183  0.04316604779267607  1.0000
  C   C24       1.0  0.8268671710117466  0.6331882923540232  0.8936446690203192  1.0000
  C   C25       1.0  0.8737208822674789  0.5474065756321822  0.8306329557649383  1.0000
  C   C26       1.0  0.9256711514636629  0.46869661937599766  0.9159346268988359  1.0000
  C   C27       1.0  0.7740097404337064  0.720100603745303  0.8003188570229525  1.0000
  H   H12       1.0  0.01718572831369758  0.19569148896071598  0.20497147841193963  1.0000
  H   H13       1.0  0.8854293109689787  0.5712180673907941  0.2457542228905114  1.0000
  H   H14       1.0  0.7986087893610762  0.710874351921257  0.09318653647204278  1.0000
  H   H15       1.0  0.8708174522836979  0.5443216481348279  0.7139774002877677  1.0000
  H   H16       1.0  0.8053296101491234  0.8115884006150083  0.7640372474501556  1.0000
  H   H17       1.0  0.7236810646451474  0.7443810404551765  0.861326266264955  1.0000
  H   H18       1.0  0.7524638284793277  0.6711958371178526  0.703761872351027  1.0000
  Zn  Zn1       1.0  0.8433711961565699  0.46807669564492105  0.48466526654946684  1.0000
  Zn  Zn2       1.0  0.01143370868121285  0.4753031172863452  0.4999127266437502  1.0000
  C   C28       1.0  0.9263253471132205  0.4646562756004693  0.7557785546663642  1.0000
  C   C29       1.0  0.9284813923821471  0.4787252533401369  0.22879974662526892  1.0000
  C   C30       1.0  0.9274257258754285  0.7088474051757296  0.48654045561631415  1.0000
  C   C31       1.0  0.9273809559569156  0.23453256094987734  0.4980379173863361  1.0000
  O   O1        1.0  0.9920388459994984  0.4828182132047689  0.28833558886106636  1.0000
  O   O2        1.0  0.9903234535009344  0.4660470260779286  0.7078147665516896  1.0000
  O   O3        1.0  0.9912111573549948  0.6632344038589991  0.4904030186609647  1.0000
  O   O4        1.0  0.9911510852400701  0.28563084300946934  0.5057472233798737  1.0000
  O   O5        1.0  0.8636537622462568  0.6577489674572407  0.47883076460254476  1.0000
  O   O6        1.0  0.8627660587037634  0.46056315002661363  0.6962424355714545  1.0000
  O   O7        1.0  0.8644814583565572  0.47733430417117406  0.276761523398003  1.0000
  O   O8        1.0  0.8635936971510402  0.28014692392554713  0.49417326607793005  1.0000
