data_image0
_chemical_formula_structural       NC10NC5H10C7OC3NC3H11C6SCOC6H10Zn2C4O8
_chemical_formula_sum              "N3 C45 H31 O10 S1 Zn2"
_cell_length_a       19.4436361288709
_cell_length_b       10.298746005989749
_cell_length_c       10.302041481415108
_cell_angle_alpha    85.5447523670973
_cell_angle_beta     89.70072369043197
_cell_angle_gamma    89.42734808848357

_space_group_name_H-M_alt    "P 1"
_space_group_IT_number       1

loop_
  _space_group_symop_operation_xyz
  'x, y, z'

loop_
  _atom_site_type_symbol
  _atom_site_label
  _atom_site_symmetry_multiplicity
  _atom_site_fract_x
  _atom_site_fract_y
  _atom_site_fract_z
  _atom_site_occupancy
  N   N1        1.0  0.6478133030714389  0.4099265015069977  0.5625225509355878  1.0000
  C   C1        1.0  0.5889785597933918  0.4198216409471478  0.5769043363938278  1.0000
  C   C2        1.0  0.5156507639453496  0.4321621781388652  0.5948939117574825  1.0000
  C   C3        1.0  0.4734619251622012  0.40021244285526025  0.5002374855072538  1.0000
  C   C4        1.0  0.39755824272678525  0.4106487726006156  0.5055653459039591  1.0000
  C   C5        1.0  0.35781947207684045  0.38584260262872916  0.6126128662180939  1.0000
  C   C6        1.0  0.2816989401139385  0.3897663487077788  0.5996565830104077  1.0000
  C   C7        1.0  0.24114294147564333  0.447383026890821  0.6934123981763964  1.0000
  C   C8        1.0  0.1694795936445342  0.4510266153885185  0.6828710558232611  1.0000
  C   C9        1.0  0.13737746307461313  0.3966573317761479  0.5788603293581147  1.0000
  C   C10       1.0  0.0635848719460959  0.40036225009074955  0.5681637433562909  1.0000
  N   N2        1.0  0.0042606337479227  0.4033408099274305  0.5595643973863857  1.0000
  C   C11       1.0  0.1772085218242696  0.33833330468886125  0.4854876057063646  1.0000
  C   C12       1.0  0.24888828843424513  0.33463562021134685  0.49577721934973357  1.0000
  C   C13       1.0  0.3859519874678585  0.345309653865462  0.7436761030155985  1.0000
  C   C14       1.0  0.44462018151500066  0.3884101515276784  0.7909123515791453  1.0000
  C   C15       1.0  0.4888338864642526  0.48631530713920396  0.716569308023576  1.0000
  H   H1        1.0  0.4955565047320663  0.37114049838173  0.4099472920138205  1.0000
  H   H2        1.0  0.372859529918651  0.43319423007847263  0.4124287566152411  1.0000
  H   H3        1.0  0.2650187685959509  0.49063487064308775  0.7742473537919681  1.0000
  H   H4        1.0  0.1391401390989427  0.4963065169125051  0.7557804074380556  1.0000
  H   H5        1.0  0.1528608357649184  0.2952769582136901  0.40498707919587845  1.0000
  H   H6        1.0  0.2785619592552359  0.2871117833214123  0.4235638558107488  1.0000
  H   H7        1.0  0.354982733766122  0.2810536488749291  0.807903726186971  1.0000
  H   H8        1.0  0.45976955869853103  0.35428868744547054  0.8888229958641973  1.0000
  H   H9        1.0  0.4587317224365521  0.5770501202673807  0.6913307301258615  1.0000
  H   H10       1.0  0.5321225041963401  0.5118701714955871  0.779643136129349  1.0000
  C   C16       1.0  0.8260073911368874  0.02523213041922068  0.5610265778974657  1.0000
  C   C17       1.0  0.8581859572757555  0.033187187610263624  0.4382825662298062  1.0000
  C   C18       1.0  0.8737337745519229  0.9200998845609684  0.37553441194188064  1.0000
  C   C19       1.0  0.8581864746192793  0.7979505950005348  0.43823343578720664  1.0000
  C   C20       1.0  0.8260731116735607  0.7880250923323577  0.5610715769495696  1.0000
  C   C21       1.0  0.8100217880337617  0.9022312128634737  0.6215356378404833  1.0000
  C   C22       1.0  0.908298621373499  0.9282978544596282  0.2464607405749364  1.0000
  O   O1        1.0  0.9502938557277084  0.8395529124746491  0.22090559135047028  1.0000
  C   C23       1.0  0.8952239821872495  0.037112561710454406  0.1463858783737424  1.0000
  C   C24       1.0  0.8300979794055728  0.09771220034478013  0.13482159997141707  1.0000
  C   C25       1.0  0.8180490157472042  0.19963980627401656  0.039036166263005  1.0000
  N   N3        1.0  0.7518219826711452  0.2611016622340343  0.02838420001267239  1.0000
  C   C26       1.0  0.8711686422468753  0.24057502756664118  0.9534801472002141  1.0000
  C   C27       1.0  0.9356668961214507  0.1798228799960671  0.9631939776198717  1.0000
  C   C28       1.0  0.9476623715587332  0.07832084408878282  0.058675715141525364  1.0000
  H   H11       1.0  0.7661595122654076  0.21747823756051646  0.7938070228454773  1.0000
  H   H12       1.0  0.8718650789505992  0.12746761224823658  0.39195755852295594  1.0000
  H   H13       1.0  0.870592458252221  0.7105466874732222  0.3904432408056788  1.0000
  H   H14       1.0  0.7852213136381316  0.8953471600842925  0.7161509095412151  1.0000
  H   H15       1.0  0.7656536799290459  0.5619479556856898  0.7933683483990418  1.0000
  H   H16       1.0  0.7884443650522694  0.0650550527781657  0.19911562285794293  1.0000
  H   H17       1.0  0.7118578136296392  0.23136370423687216  0.09165296652080901  1.0000
  H   H18       1.0  0.7422828739242485  0.33691847955201015  0.9572408716326625  1.0000
  H   H19       1.0  0.8625034136706451  0.319113041511903  0.8790815486093404  1.0000
  H   H20       1.0  0.9764778804883582  0.21146081450990264  0.8965751583417676  1.0000
  H   H21       1.0  0.9981054472253691  0.0327446210101503  0.06478319173634439  1.0000
  C   C29       1.0  0.8260531628244216  0.4067576431084887  0.17976195499227465  1.0000
  C   C30       1.0  0.8575950736993819  0.5292838060633266  0.16859457287179902  1.0000
  C   C31       1.0  0.8735952419443694  0.5897194807481797  0.0460801057970417  1.0000
  C   C32       1.0  0.8576603152916428  0.5288787036335281  0.9334885953865482  1.0000
  C   C33       1.0  0.8260273706084778  0.40649953872264555  0.942336244502799  1.0000
  C   C34       1.0  0.8104382856609855  0.34601771016542937  0.06604072428580943  1.0000
  S   S1        1.0  0.9145032377941577  0.7455099378398915  0.03322743285733054  1.0000
  C   C35       1.0  0.9992226299124342  0.6741380052549227  0.035088601413388876  1.0000
  O   O2        1.0  0.026137461863068312  0.6504659945719891  0.9278035893874156  1.0000
  C   C36       1.0  0.03713011086435558  0.6420922689965777  0.15829664912150299  1.0000
  C   C37       1.0  0.09813804210506083  0.567235425945858  0.1579782219755701  1.0000
  C   C38       1.0  0.13398318230079598  0.5356737675141641  0.2736309769609817  1.0000
  C   C39       1.0  0.1095504313945781  0.5784763257194809  0.39077384212692595  1.0000
  C   C40       1.0  0.049281709286395754  0.6531606868365163  0.39246639199071387  1.0000
  C   C41       1.0  0.01323130897027136  0.6851003042618848  0.2771147687621327  1.0000
  H   H22       1.0  0.7664991145589664  0.1759322793253164  0.4081197424815201  1.0000
  H   H23       1.0  0.8699548221319198  0.5779874054572565  0.25480925767349016  1.0000
  H   H24       1.0  0.8703115593703994  0.5772453587793929  0.839415141157852  1.0000
  H   H25       1.0  0.7861233172488827  0.25155852283306745  0.07372941192987925  1.0000
  H   H26       1.0  0.814188316438291  0.3597976318364222  0.618372427646042  1.0000
  H   H27       1.0  0.11800243695736558  0.532407568482305  0.06849265973299357  1.0000
  H   H28       1.0  0.1807311079257481  0.4778207113139932  0.2723926022163663  1.0000
  H   H29       1.0  0.13736080341237722  0.5539092734477375  0.48020368014274073  1.0000
  H   H30       1.0  0.03048518821803459  0.6865816580060161  0.48329704730668643  1.0000
  H   H31       1.0  0.9670054138339881  0.7438858528670096  0.28157612603494564  1.0000
  Zn  Zn1       1.0  0.7506763037320967  0.40802253896832896  0.5616764020443039  1.0000
  Zn  Zn2       1.0  0.9013976233267991  0.4052341602635704  0.5604212245408755  1.0000
  C   C42       1.0  0.8260302477022567  0.4013742505166876  0.7981930574417418  1.0000
  C   C43       1.0  0.8260453253656617  0.41188405698250247  0.32390468297275854  1.0000
  C   C44       1.0  0.8260573319162164  0.6438427850617877  0.555889050087659  1.0000
  C   C45       1.0  0.826018189584243  0.16941396292971134  0.5662087598868448  1.0000
  O   O3        1.0  0.8832406498500748  0.4125406868973378  0.371803965587582  1.0000
  O   O4        1.0  0.8832289172645031  0.39860032600401324  0.7493407503209646  1.0000
  O   O5        1.0  0.8832500170083059  0.5943967478901069  0.5536785565424767  1.0000
  O   O6        1.0  0.8832194986793918  0.21674427528669177  0.5674660624411396  1.0000
  O   O7        1.0  0.7688543769457153  0.5965124248981613  0.5546315645655409  1.0000
  O   O8        1.0  0.7688332773355824  0.400717563472711  0.7502936892055263  1.0000
  O   O9        1.0  0.76884501001584  0.4146578796336857  0.3727553434032518  1.0000
  O   O10       1.0  0.7688238588382487  0.21886145870054508  0.5684175376032405  1.0000
