data_image0
_chemical_formula_structural       NC12NC2H8C10SC3H12C11NC2H7Zn2C4O8
_chemical_formula_sum              "N3 C44 H27 S1 Zn2 O8"
_cell_length_a       17.80743265337812
_cell_length_b       10.299151087687916
_cell_length_c       10.299775503585812
_cell_angle_alpha    85.55102628306553
_cell_angle_beta     91.5463316804276
_cell_angle_gamma    89.45052972689074

_space_group_name_H-M_alt    "P 1"
_space_group_IT_number       1

loop_
  _space_group_symop_operation_xyz
  'x, y, z'

loop_
  _atom_site_type_symbol
  _atom_site_label
  _atom_site_symmetry_multiplicity
  _atom_site_fract_x
  _atom_site_fract_y
  _atom_site_fract_z
  _atom_site_occupancy
  N   N1        1.0  0.7074483511632589  0.406423922587414  0.6008644584075222  1.0000
  C   C1        1.0  0.6566240174141638  0.43596673120735785  0.5321578578400714  1.0000
  C   C2        1.0  0.5933935322469562  0.4727158416680308  0.44669549512410733  1.0000
  C   C3        1.0  0.6051118125312646  0.5267070143280015  0.32006142637566604  1.0000
  C   C4        1.0  0.5437887694902844  0.5619530538445807  0.23699550040565165  1.0000
  C   C5        1.0  0.4705930966506829  0.543471229904424  0.2799036733205098  1.0000
  C   C6        1.0  0.4578980860503084  0.48936137005011265  0.4070059067054004  1.0000
  C   C7        1.0  0.5200784435320928  0.45411858027418844  0.49005532056381096  1.0000
  C   C8        1.0  0.3801344122666482  0.46976609471091413  0.45277465595958727  1.0000
  C   C9        1.0  0.36136913574553214  0.496988842867136  0.5798024264570061  1.0000
  C   C10       1.0  0.28814352827979234  0.47854860654958786  0.6227511444921827  1.0000
  C   C11       1.0  0.23274030151698402  0.4326315550870419  0.5395101158263784  1.0000
  C   C12       1.0  0.1573781936406846  0.4136388251372772  0.5838599022928457  1.0000
  N   N2        1.0  0.09679239574657461  0.39836994759063504  0.6195140796539449  1.0000
  C   C13       1.0  0.2508141321750805  0.4052400268641932  0.41302535229678194  1.0000
  C   C14       1.0  0.3239868528450416  0.42369498091162344  0.3698207542223386  1.0000
  H   H1        1.0  0.6615750681610351  0.541522710754206  0.2856204940181921  1.0000
  H   H2        1.0  0.5529799734903315  0.6040272021426585  0.13920524878624074  1.0000
  H   H3        1.0  0.4239493369714701  0.5730914912718554  0.21430483656389065  1.0000
  H   H4        1.0  0.5115854100591968  0.4106589765177284  0.5877216598453856  1.0000
  H   H5        1.0  0.40305949651436823  0.5341888367491987  0.6453581625467695  1.0000
  H   H6        1.0  0.2747162419527337  0.5004223764659369  0.7207468959468171  1.0000
  H   H7        1.0  0.2084071264626421  0.3693075300576498  0.3478820681684327  1.0000
  H   H8        1.0  0.3368855677160247  0.40028561991363537  0.2721289076387441  1.0000
  C   C15       1.0  0.902067831750111  0.02099702688142635  0.610349484908415  1.0000
  C   C16       1.0  0.8870255141446881  0.03093491284468919  0.4753923209536864  1.0000
  C   C17       1.0  0.879457303529829  0.9188420163799571  0.4068089163998798  1.0000
  C   C18       1.0  0.8871329309939044  0.7956803860184006  0.47499847695123515  1.0000
  C   C19       1.0  0.90218008778557  0.7837866885016799  0.6100406024397882  1.0000
  C   C20       1.0  0.9095563849569752  0.8969633314207528  0.6768851787878893  1.0000
  C   C21       1.0  0.863538548425369  0.9303903843592483  0.2640472422337863  1.0000
  C   C22       1.0  0.81135768311927  0.02345767828096678  0.2082762006768728  1.0000
  C   C23       1.0  0.796400801763327  0.03409645900241819  0.07391424359813459  1.0000
  C   C24       1.0  0.8331862968936848  0.9519480432863108  0.993631095265088  1.0000
  S   S1        1.0  0.8140756478479  0.9660614953890658  0.8211950552467605  1.0000
  C   C25       1.0  0.7381096404718437  0.8490804259087694  0.8306783792007666  1.0000
  C   C26       1.0  0.8853454892849355  0.8594595503703617  0.04799430177077446  1.0000
  C   C27       1.0  0.9004105214990402  0.8484723768907783  0.18232420403612015  1.0000
  H   H9        1.0  0.9078136657041987  0.3446501332963683  0.6622698007528716  1.0000
  H   H10       1.0  0.8821786174840223  0.12609746443374137  0.42300132310004335  1.0000
  H   H11       1.0  0.8803397430298998  0.7089428550642556  0.42291457682974265  1.0000
  H   H12       1.0  0.9211564413144226  0.88858214624194  0.7809817615027458  1.0000
  H   H13       1.0  0.9301120907933328  0.5540418359245896  0.8650588408769864  1.0000
  H   H14       1.0  0.7814201668786803  0.08682507781871986  0.2687518759962848  1.0000
  H   H15       1.0  0.7559389970809596  0.10584729832263773  0.032414543169013044  1.0000
  H   H16       1.0  0.714698687256389  0.8385264876357539  0.731210052325014  1.0000
  H   H17       1.0  0.6928742204974786  0.88383650622409  0.8919613194094557  1.0000
  H   H18       1.0  0.7596149949990492  0.7528400415823164  0.8725198838585895  1.0000
  H   H19       1.0  0.9142823086296972  0.7960301822425871  0.986271342550276  1.0000
  H   H20       1.0  0.9415908870368194  0.7771070729461261  0.22208435803317214  1.0000
  C   C28       1.0  0.9020775195808617  0.4023002734037499  0.22883911020647976  1.0000
  C   C29       1.0  0.8425863616127934  0.4933086319643702  0.21800855459262114  1.0000
  C   C30       1.0  0.812488799800083  0.5395159952653927  0.09537691548402805  1.0000
  C   C31       1.0  0.8426799631227332  0.49349342768738086  0.9827119503683247  1.0000
  C   C32       1.0  0.9021704362603676  0.4024834931333721  0.9915509401128171  1.0000
  C   C33       1.0  0.9315362048693094  0.3573970383978913  0.11505731894580018  1.0000
  C   C34       1.0  0.7495527709817867  0.6357979714517137  0.08497304273739736  1.0000
  C   C35       1.0  0.749053954379342  0.7408739369253157  0.9890673747472079  1.0000
  C   C36       1.0  0.6897981813563936  0.8314643896709052  0.9794003561006152  1.0000
  C   C37       1.0  0.6302834437667155  0.8182661716475841  0.06526059020123243  1.0000
  C   C38       1.0  0.5692953587634191  0.9115718686301347  0.05518132853207458  1.0000
  N   N3        1.0  0.5202650488326127  0.986583209611814  0.04707807736921543  1.0000
  C   C39       1.0  0.6302321944565868  0.714095190878755  0.16094833658203922  1.0000
  C   C40       1.0  0.6894514619493815  0.6234324694789486  0.1708625763062943  1.0000
  H   H21       1.0  0.9247251790906763  0.3675795656383085  0.5604216800437423  1.0000
  H   H22       1.0  0.8201960785876752  0.5298175253201878  0.305062210706486  1.0000
  H   H23       1.0  0.8190005504724505  0.5274625420888228  0.8880421713955676  1.0000
  H   H24       1.0  0.9774307093487871  0.2871877892884773  0.12264447002067659  1.0000
  H   H25       1.0  0.7949631484665683  0.7539342703401326  0.9226444260008968  1.0000
  H   H26       1.0  0.5843383313351044  0.7027417044482289  0.2276989595907359  1.0000
  H   H27       1.0  0.687766865445338  0.5427137039870584  0.24459493699220228  1.0000
  Zn  Zn1       1.0  0.8198046358759116  0.4040962536158474  0.6062538243268742  1.0000
  Zn  Zn2       1.0  0.9844361082708284  0.4006870247883656  0.6141353107151011  1.0000
  C   C41       1.0  0.9021504195135691  0.39727478731623544  0.8473841084377842  1.0000
  C   C42       1.0  0.9020921226604612  0.40751009264239  0.3730052394682708  1.0000
  C   C43       1.0  0.9021543863491817  0.6396020739388235  0.6049237982267692  1.0000
  C   C44       1.0  0.9020880994263893  0.16518124677065105  0.6154656168580577  1.0000
  O   O1        1.0  0.9645738085431164  0.4079591047975961  0.42437969472654435  1.0000
  O   O2        1.0  0.9646202116759397  0.3942372694734053  0.8019911455464631  1.0000
  O   O3        1.0  0.9646225728933792  0.5899196358331547  0.6062026887368077  1.0000
  O   O4        1.0  0.9645713911376151  0.21227674886877201  0.6201680514716676  1.0000
  O   O5        1.0  0.8396692968284826  0.5925065307002555  0.6002210808739115  1.0000
  O   O6        1.0  0.8396669358288601  0.3968257247544716  0.7960094678084002  1.0000
  O   O7        1.0  0.8396205325491688  0.4105475144429482  0.4183964556616859  1.0000
  O   O8        1.0  0.8396181151510872  0.2148651492480136  0.6141849097749457  1.0000
