data_image0
_chemical_formula_structural       NC10NC2NH7C6OCH8C10IC2H9Zn2C4O8
_chemical_formula_sum              "N3 C35 H24 O9 I1 Zn2"
_cell_length_a       18.145345255705053
_cell_length_b       10.300308824427217
_cell_length_c       10.299773630820606
_cell_angle_alpha    85.5486203950951
_cell_angle_beta     90.54661963795658
_cell_angle_gamma    91.02722867178026

_space_group_name_H-M_alt    "P 1"
_space_group_IT_number       1

loop_
  _space_group_symop_operation_xyz
  'x, y, z'

loop_
  _atom_site_type_symbol
  _atom_site_label
  _atom_site_symmetry_multiplicity
  _atom_site_fract_x
  _atom_site_fract_y
  _atom_site_fract_z
  _atom_site_occupancy
  N   N1        1.0  0.6939751270043486  0.4428566640042244  0.5775507866713028  1.0000
  C   C1        1.0  0.6359926655752763  0.39980945435144327  0.5576100629852596  1.0000
  C   C2        1.0  0.5639434417335406  0.3463439836659587  0.5328428732218704  1.0000
  C   C3        1.0  0.5499467335514227  0.22936641049912448  0.4801110802007533  1.0000
  C   C4        1.0  0.4741882391258797  0.21558015253622465  0.47422279763034814  1.0000
  C   C5        1.0  0.4453413116430855  0.3253822065068766  0.523637403158024  1.0000
  C   C6        1.0  0.3658331538854429  0.35311987609335854  0.5364309134646026  1.0000
  C   C7        1.0  0.31271521262968666  0.2516263385634101  0.5394046485561172  1.0000
  C   C8        1.0  0.2378732535170781  0.277945082092254  0.551519779149579  1.0000
  C   C9        1.0  0.2150109232704301  0.4058749339686654  0.5606399793404804  1.0000
  C   C10       1.0  0.13793781164309188  0.4328517981943367  0.5730382498492625  1.0000
  N   N2        1.0  0.07597736666306358  0.4545390590045684  0.5830054580407187  1.0000
  C   C11       1.0  0.26729641806879406  0.5075144381144214  0.5575741047360014  1.0000
  C   C12       1.0  0.34218500620954245  0.48146223143772554  0.5455719637332317  1.0000
  N   N3        1.0  0.5007247091678675  0.4047754672877096  0.5592395067697213  1.0000
  H   H1        1.0  0.5900488741716777  0.16179344793198847  0.44933942453051784  1.0000
  H   H2        1.0  0.4440348823430062  0.13492781929874822  0.4365497235267171  1.0000
  H   H3        1.0  0.32882702437181194  0.15158624691601053  0.5340169600100835  1.0000
  H   H4        1.0  0.1978706571124233  0.19843462900654174  0.5540498405059098  1.0000
  H   H5        1.0  0.2501801098507793  0.6070248891255932  0.5640844142697754  1.0000
  H   H6        1.0  0.3811688491068954  0.5623103500454398  0.5416104174572454  1.0000
  H   H7        1.0  0.49629269247401747  0.49324974610524996  0.6013994679619936  1.0000
  C   C13       1.0  0.8849867121213333  0.06735508670078375  0.5802464229208799  1.0000
  C   C14       1.0  0.9091227662150257  0.07712390404337664  0.4506101039176742  1.0000
  C   C15       1.0  0.9212675333707314  0.964460026006904  0.38538001593253757  1.0000
  C   C16       1.0  0.9090943668145122  0.8419649431865752  0.4507630391315889  1.0000
  C   C17       1.0  0.884972855141811  0.8300307708121428  0.5803211646416153  1.0000
  C   C18       1.0  0.8730445121568424  0.9433474332824657  0.6443888716204655  1.0000
  O   O1        1.0  0.9453595338803645  0.969909308888228  0.25598084550299616  1.0000
  C   C19       1.0  0.9599955359305693  0.08725118430903245  0.17737069023320018  1.0000
  H   H8        1.0  0.8757907195348136  0.3910626203739753  0.629641776240154  1.0000
  H   H9        1.0  0.9183886360920582  0.17227561517214718  0.40084220335302484  1.0000
  H   H10       1.0  0.9186373808169757  0.7559731912562403  0.39950717370324607  1.0000
  H   H11       1.0  0.8544331441387097  0.9350110279584305  0.7443518162052973  1.0000
  H   H12       1.0  0.875844463351884  0.49810521662422114  0.6293517455042548  1.0000
  H   H13       1.0  0.9092310857444973  0.14578374636887093  0.16551458166337807  1.0000
  H   H14       1.0  0.9781539083729823  0.06269926215152966  0.07984104870803144  1.0000
  H   H15       1.0  0.004624941692805917  0.14439830080131233  0.22217972820357293  1.0000
  C   C20       1.0  0.8849603312007015  0.44881047630941123  0.1989134160107027  1.0000
  C   C21       1.0  0.9592752186112886  0.48927246782692535  0.19602595178150506  1.0000
  C   C22       1.0  0.996950752913936  0.5096553417673308  0.0774338840062716  1.0000
  C   C23       1.0  0.9593144691145672  0.4890348942042785  0.9607586464383947  1.0000
  C   C24       1.0  0.884999211709751  0.44857544381551523  0.9616541514158593  1.0000
  C   C25       1.0  0.8482383681719414  0.42868913240409734  0.08121889955469852  1.0000
  C   C26       1.0  0.07556886956077835  0.5524593502114143  0.07543278446365065  1.0000
  C   C27       1.0  0.12586526399323983  0.49798723813705603  0.9926977562449029  1.0000
  C   C28       1.0  0.19984084962384951  0.5384005615892032  0.9910153464140419  1.0000
  C   C29       1.0  0.22446750669063764  0.6335296371710613  0.07164102352341328  1.0000
  I   I1        1.0  0.33608918885586747  0.6943043572562486  0.06879809116492241  1.0000
  C   C30       1.0  0.17502437804999982  0.688329865366578  0.15415310380305502  1.0000
  C   C31       1.0  0.10100739886026067  0.648166422185304  0.15623930185691148  1.0000
  H   H16       1.0  0.8566334750732727  0.43344923567451277  0.5274624290475856  1.0000
  H   H17       1.0  0.9883187124970443  0.503311753301201  0.2863550896206224  1.0000
  H   H18       1.0  0.9878194655092121  0.5063278085345695  0.8689649118386393  1.0000
  H   H19       1.0  0.7909076593563448  0.39747558429559426  0.08267803756574343  1.0000
  H   H20       1.0  0.8566908706340859  0.4331032155367385  0.6345462891809204  1.0000
  H   H21       1.0  0.10819946891951583  0.42299177000722304  0.9305999893545098  1.0000
  H   H22       1.0  0.23801934012164594  0.4954852860972119  0.9272477015620542  1.0000
  H   H23       1.0  0.19385810953508886  0.7622864575186462  0.21646879743049133  1.0000
  H   H24       1.0  0.06348816449769414  0.6931156903267611  0.21974248382862305  1.0000
  Zn  Zn1       1.0  0.8042127259545445  0.4462244577878549  0.5791323929048062  1.0000
  Zn  Zn2       1.0  0.9657397679625956  0.45116058634881684  0.5814345111554142  1.0000
  C   C32       1.0  0.8849903180768817  0.4434464656430578  0.8174793173445418  1.0000
  C   C33       1.0  0.8849639396872298  0.45394027086427735  0.343087739482284  1.0000
  C   C34       1.0  0.8849714037546992  0.6858703325222809  0.5751318027285528  1.0000
  C   C35       1.0  0.884982798923432  0.21151484208343363  0.5854353223986899  1.0000
  O   O2        1.0  0.9462638214681236  0.45752944648803884  0.3923476008112638  1.0000
  O   O3        1.0  0.9462857236975191  0.4436027178425077  0.769966336556883  1.0000
  O   O4        1.0  0.9462696238766029  0.6393630305474429  0.5742689922106683  1.0000
  O   O5        1.0  0.9462798661656681  0.26176914141833474  0.5880448469977888  1.0000
  O   O6        1.0  0.8236725726302192  0.6356159010352946  0.5725220562700002  1.0000
  O   O7        1.0  0.8236886724158632  0.43985714854893737  0.7682193315233667  1.0000
  O   O8        1.0  0.8236667701567048  0.4537838324243024  0.3905990343673056  1.0000
  O   O9        1.0  0.8236828148563684  0.2580235180363253  0.5862963779210897  1.0000
