data_image0
_chemical_formula_structural       NC8NH4C6NH7C6IH3Zn2C4O8
_chemical_formula_sum              "N3 C24 H14 I1 Zn2 O8"
_cell_length_a       13.859017124695912
_cell_length_b       9.274771166103582
_cell_length_c       9.275433903346869
_cell_angle_alpha    86.06373460888793
_cell_angle_beta     89.96561328277663
_cell_angle_gamma    90.59707951677755

_space_group_name_H-M_alt    "P 1"
_space_group_IT_number       1

loop_
  _space_group_symop_operation_xyz
  'x, y, z'

loop_
  _atom_site_type_symbol
  _atom_site_label
  _atom_site_symmetry_multiplicity
  _atom_site_fract_x
  _atom_site_fract_y
  _atom_site_fract_z
  _atom_site_occupancy
  N   N1        1.0  0.9201201848117104  0.5617190891561636  0.40768664572384883  1.0000
  C   C1        1.0  0.847624594888763  0.5382575935363332  0.3515817163607067  1.0000
  C   C2        1.0  0.7574443979138268  0.5090749156118499  0.28179439413292573  1.0000
  C   C3        1.0  0.670000286183115  0.5375250562818711  0.3498282517239011  1.0000
  C   C4        1.0  0.5822140867949435  0.509076135541964  0.28179381276159754  1.0000
  C   C5        1.0  0.5820543626031294  0.4521693503403031  0.14570463087051988  1.0000
  C   C6        1.0  0.6693165714885899  0.42382856049430395  0.07793265410235929  1.0000
  C   C7        1.0  0.7569197047024624  0.45216701290185474  0.14570581317199216  1.0000
  C   C8        1.0  0.4923847627971618  0.5382585149953751  0.35158121679545196  1.0000
  N   N2        1.0  0.42017131272121044  0.5617194095391913  0.40768642918782905  1.0000
  H   H1        1.0  0.6702651254263678  0.5815731093991362  0.4551645373930014  1.0000
  H   H2        1.0  0.5146242962061931  0.4297779896032949  0.09215453365074788  1.0000
  H   H3        1.0  0.6690523398572411  0.3798704631933436  0.9728096908291781  1.0000
  H   H4        1.0  0.8240804810696051  0.4297735616054315  0.09215671872927533  1.0000
  C   C9        1.0  0.167187791296171  0.13813106690643684  0.40847196065918345  1.0000
  C   C10       1.0  0.14502649093196252  0.22006878223175194  0.2796138004791393  1.0000
  C   C11       1.0  0.13187427305335664  0.15363966822066977  0.14993808751651794  1.0000
  C   C12       1.0  0.14093424651054987  0.0038853724828542572  0.1481812813723944  1.0000
  C   C13       1.0  0.16131187767783373  0.920609394001046  0.2752693077655939  1.0000
  C   C14       1.0  0.17311287021780358  0.9852965297731663  0.40691364613057357  1.0000
  N   N3        1.0  0.11030625715862753  0.23866181363189654  0.019663701159405637  1.0000
  H   H5        1.0  0.2756752519598089  0.22114676785606685  0.7238275006071735  1.0000
  H   H6        1.0  0.14016157458043765  0.3366555976869443  0.2790602935315507  1.0000
  H   H7        1.0  0.1312716201128663  0.9513365883834206  0.04840890308296242  1.0000
  H   H8        1.0  0.16556549908559193  0.8044014734125343  0.27114249906086396  1.0000
  H   H9        1.0  0.2422720536306917  0.6905130641234846  0.6214670723254114  1.0000
  H   H10       1.0  0.10365829642448476  0.35073521222373105  0.019616902065106696  1.0000
  H   H11       1.0  0.10073369461589121  0.1901554505111125  0.9222610356205108  1.0000
  C   C15       1.0  0.170288194956687  0.5572116328358567  0.9845487419964849  1.0000
  C   C16       1.0  0.259151742722348  0.5545112621652231  0.05800853692191432  1.0000
  C   C17       1.0  0.34615034845015225  0.5651030295281743  0.9818702754309068  1.0000
  C   C18       1.0  0.3456801309739459  0.5787319323323212  0.831299561923827  1.0000
  C   C19       1.0  0.2584361784380993  0.5792519682897588  0.7563232555461141  1.0000
  C   C20       1.0  0.1700124416036095  0.5662158806077956  0.8308368024308641  1.0000
  I   I1        1.0  0.4783036074241929  0.5631882536602042  0.09465813482716778  1.0000
  H   H12       1.0  0.940876377486112  0.6426675876945194  0.08188125564944437  1.0000
  H   H13       1.0  0.41303727995433825  0.5875496135850748  0.7720723816195583  1.0000
  H   H14       1.0  0.015034796225881664  0.6176842510419827  0.5462666670424641  1.0000
  Zn  Zn1       1.0  0.06442411198857247  0.5617154190123734  0.40769491592689167  1.0000
  Zn  Zn2       1.0  0.27586729176164426  0.5617114387011206  0.40768999909120884  1.0000
  C   C21       1.0  0.17002222890484298  0.5587674921883743  0.6708808337245868  1.0000
  C   C22       1.0  0.17027149648145534  0.5646611870089417  0.14450421932104418  1.0000
  C   C23       1.0  0.171989796807257  0.8251030991141928  0.40146611621410266  1.0000
  C   C24       1.0  0.16830384428240386  0.29832384786640986  0.4139190168441187  1.0000
  O   O1        1.0  0.25050743308618895  0.5671535219687975  0.19818488438477289  1.0000
  O   O2        1.0  0.2502667658101434  0.5562710436686251  0.6171960241009236  1.0000
  O   O3        1.0  0.25185451959150473  0.7713404304966031  0.3996417308235976  1.0000
  O   O4        1.0  0.24891960726096451  0.3520841443113416  0.415739069603712  1.0000
  O   O5        1.0  0.09137172433408502  0.7713427134050008  0.3996458454084837  1.0000
  O   O6        1.0  0.08978398269419485  0.5562750587965856  0.6172000586673154  1.0000
  O   O7        1.0  0.09002465024732766  0.567157468398053  0.19818718660719026  1.0000
  O   O8        1.0  0.08843682431079958  0.35208808157292326  0.4157414798786123  1.0000
