data_image0
_chemical_formula_structural       NC6NC2H4C6ClH5C6NH7Zn2C4O8
_chemical_formula_sum              "N3 C24 H16 Cl1 Zn2 O8"
_cell_length_a       14.927258858638513
_cell_length_b       9.276545438789551
_cell_length_c       9.274774538082516
_cell_angle_alpha    85.10039089897613
_cell_angle_beta     90.34966586359073
_cell_angle_gamma    89.40960950127158

_space_group_name_H-M_alt    "P 1"
_space_group_IT_number       1

loop_
  _space_group_symop_operation_xyz
  'x, y, z'

loop_
  _atom_site_type_symbol
  _atom_site_label
  _atom_site_symmetry_multiplicity
  _atom_site_fract_x
  _atom_site_fract_y
  _atom_site_fract_z
  _atom_site_occupancy
  N   N1        1.0  0.8273419320588979  0.5919034253336679  0.4089835152072512  1.0000
  C   C1        1.0  0.749815441114493  0.5919033967351588  0.4089835257914898  1.0000
  C   C2        1.0  0.6533829326414613  0.5919035122539678  0.4089834759412019  1.0000
  C   C3        1.0  0.6059941897574856  0.5693192423916099  0.2821365123557995  1.0000
  C   C4        1.0  0.5122828777357774  0.5693192691870854  0.28213637875775843  1.0000
  C   C5        1.0  0.46556686985792595  0.5919033345629008  0.40898349448763516  1.0000
  C   C6        1.0  0.3691342943933165  0.5919034500847256  0.4089834446314178  1.0000
  N   N2        1.0  0.2916078034489117  0.5919034214862164  0.4089834552156568  1.0000
  C   C7        1.0  0.5129555457503234  0.6144876044282748  0.535830458067108  1.0000
  C   C8        1.0  0.6066668577720319  0.6144875776327989  0.5358305916651493  1.0000
  H   H1        1.0  0.6414286725938435  0.5517474082348081  0.18344229460330164  1.0000
  H   H2        1.0  0.47632501579940206  0.5517476057917423  0.18344228977857813  1.0000
  H   H3        1.0  0.4775211303841887  0.6320594273271409  0.6345247840241879  1.0000
  H   H4        1.0  0.6426247195070842  0.6320593373867576  0.6345247908583114  1.0000
  C   C9        1.0  0.06218194224643803  0.1684703412364587  0.40874558560554797  1.0000
  C   C10       1.0  0.061999902956909166  0.2532809904111044  0.27553614958094497  1.0000
  C   C11       1.0  0.05367896918966866  0.1893355502014471  0.14522604123995642  1.0000
  C   C12       1.0  0.04534726535182676  0.03973662382704267  0.14612057988683325  1.0000
  C   C13       1.0  0.04690185990698528  0.9534088360439769  0.27688495493353993  1.0000
  C   C14       1.0  0.056776522304536683  0.015325319929771151  0.4092338940623079  1.0000
  Cl  Cl1       1.0  0.05234028384339751  0.2973907345593107  0.9804609734296656  1.0000
  H   H5        1.0  0.10888651770681548  0.42945485939840666  0.635648972955136  1.0000
  H   H6        1.0  0.06618637861628732  0.370026420696031  0.2726787555864354  1.0000
  H   H7        1.0  0.03851791303977194  0.9898923172369007  0.04530489908733393  1.0000
  H   H8        1.0  0.04251181622528156  0.8371714644417335  0.2742310973568629  1.0000
  H   H9        1.0  0.02765883334817953  0.7145589539603568  0.6426070911048082  1.0000
  C   C15       1.0  0.0578479651824966  0.5955857682929158  0.9851755453250277  1.0000
  C   C16       1.0  0.12078232189829868  0.6806769657770289  0.05196111056777952  1.0000
  C   C17       1.0  0.18781150268109548  0.7538903639136199  0.9712384004138213  1.0000
  C   C18       1.0  0.19245086874468828  0.7423446137319899  0.8222543274935604  1.0000
  C   C19       1.0  0.12978364931313335  0.6604298500969443  0.7537680311767048  1.0000
  C   C20       1.0  0.06111046998457484  0.588209813943761  0.8328039184089002  1.0000
  N   N3        1.0  0.25177557034093767  0.838780957035165  0.04102909502178065  1.0000
  H   H10       1.0  0.9257409957102923  0.3137131986754308  0.11093334807993106  1.0000
  H   H11       1.0  0.11912611530100908  0.6875156602471302  0.16798518325674006  1.0000
  H   H12       1.0  0.24420763856840633  0.7980551265229591  0.758755673300977  1.0000
  H   H13       1.0  0.13380397538571365  0.6564189437700791  0.6375926685268665  1.0000
  H   H14       1.0  0.9693524703159726  0.4027483879682672  0.5666152111252402  1.0000
  H   H15       1.0  0.24911643141504725  0.8478232679395248  0.15240423194819508  1.0000
  H   H16       1.0  0.3022465555532625  0.8933575600838657  0.9818184718100725  1.0000
  Zn  Zn1       1.0  0.9613190985870902  0.5918994879056625  0.40899183497121183  1.0000
  Zn  Zn2       1.0  0.15763076875940657  0.5918954450337699  0.4089869675952078  1.0000
  C   C21       1.0  0.06052845895977788  0.5838597351505082  0.672580695749891  1.0000
  C   C22       1.0  0.05842354103639938  0.5999370158676127  0.14539824946551794  1.0000
  C   C23       1.0  0.057771496989002434  0.8553017151115978  0.40339042912786005  1.0000
  C   C24       1.0  0.06118044737372477  0.32849330283805095  0.41458859203500237  1.0000
  O   O1        1.0  0.13311600544747604  0.6013895093946067  0.1991686018565322  1.0000
  O   O2        1.0  0.1348320152108453  0.5824030890089078  0.6188062330518658  1.0000
  O   O3        1.0  0.1326047350433781  0.8015959076419297  0.40143318907817194  1.0000
  O   O4        1.0  0.13534321814472072  0.38219670201952005  0.4165415376256434  1.0000
  O   O5        1.0  0.9836065822101978  0.8015982309229277  0.40143726493484655  1.0000
  O   O6        1.0  0.9858338510195374  0.5824071453613926  0.6188102329551572  1.0000
  O   O7        1.0  0.984117834957788  0.6013935305987372  0.19917086655071772  1.0000
  O   O8        1.0  0.9863450481336771  0.3822007119687303  0.41654391051848205  1.0000
