data_image0
_chemical_formula_structural       NC9NC4H8C7NC2NH8C12H10Zn2C4O8
_chemical_formula_sum              "N4 C38 H26 Zn2 O8"
_cell_length_a       16.32274767691083
_cell_length_b       9.273995741505848
_cell_length_c       10.299141136925904
_cell_angle_alpha    85.68706710251877
_cell_angle_beta     89.48989962439883
_cell_angle_gamma    90.10890436374608

_space_group_name_H-M_alt    "P 1"
_space_group_IT_number       1

loop_
  _space_group_symop_operation_xyz
  'x, y, z'

loop_
  _atom_site_type_symbol
  _atom_site_label
  _atom_site_symmetry_multiplicity
  _atom_site_fract_x
  _atom_site_fract_y
  _atom_site_fract_z
  _atom_site_occupancy
  N   N1        1.0  0.78020267496139  0.5682878970549581  0.5601957894174987  1.0000
  C   C1        1.0  0.7275579060289047  0.5156299852645799  0.5057851060035905  1.0000
  C   C2        1.0  0.66212021229067  0.45022844886085034  0.4382066021433772  1.0000
  C   C3        1.0  0.6731476420949932  0.3607708195671995  0.34576694226930504  1.0000
  C   C4        1.0  0.5935256693762023  0.3171150208959624  0.3006594536582159  1.0000
  C   C5        1.0  0.5349678268758747  0.38100427347864596  0.36668071953258763  1.0000
  C   C6        1.0  0.4449311840535181  0.3641189171805368  0.3492354209944506  1.0000
  C   C7        1.0  0.389772562937689  0.4385859695160317  0.4261800763436441  1.0000
  C   C8        1.0  0.3049793036658373  0.42415493264358006  0.41127021924799956  1.0000
  C   C9        1.0  0.24942220035541476  0.5009112393623057  0.49057952719628556  1.0000
  N   N2        1.0  0.2047731564647411  0.5626106795378736  0.554330779024008  1.0000
  C   C10       1.0  0.27429092009849687  0.3351364071348555  0.3192918908991551  1.0000
  C   C11       1.0  0.3281282021459611  0.2607679917451067  0.24244949567464946  1.0000
  C   C12       1.0  0.4127603827083583  0.27481032323462884  0.25695759351923453  1.0000
  C   C13       1.0  0.5732689096444855  0.47416185894333246  0.4629410524170104  1.0000
  H   H1        1.0  0.7318509089534004  0.32598496666765314  0.3098192596656497  1.0000
  H   H2        1.0  0.5848011060220524  0.24400141202552342  0.22510845011289415  1.0000
  H   H3        1.0  0.4122930073636853  0.5080799356028096  0.49798477424353244  1.0000
  H   H4        1.0  0.20882936619680859  0.3232482222624695  0.3070094858680674  1.0000
  H   H5        1.0  0.3042154089911808  0.19190386316379549  0.17129583519190916  1.0000
  H   H6        1.0  0.45219236627826975  0.21532037787864874  0.19548901804486207  1.0000
  H   H7        1.0  0.5562946708643122  0.4355517820892889  0.5643649135041033  1.0000
  H   H8        1.0  0.5571523427130091  0.5897166958613178  0.44102692408995564  1.0000
  C   C14       1.0  0.9900415027787136  0.14199328550510337  0.556348327406547  1.0000
  C   C15       1.0  0.004398570990179038  0.22507360428235823  0.4386973639434788  1.0000
  C   C16       1.0  0.026087379346009243  0.1597037314359786  0.32581648699592947  1.0000
  C   C17       1.0  0.03432418829162853  0.009147008534696518  0.32735825773602234  1.0000
  C   C18       1.0  0.018246577534427152  0.9248124301559747  0.44395710211177836  1.0000
  C   C19       1.0  0.9949421184427188  0.9888939904621892  0.5581893196931631  1.0000
  C   C20       1.0  0.05830884110799483  0.9418659951949482  0.20633768677582268  1.0000
  N   N3        1.0  0.061265981210978815  0.016147237682890832  0.08828258901638208  1.0000
  C   C21       1.0  0.08582049449800432  0.9179564949386425  0.0062610270719662955  1.0000
  C   C22       1.0  0.09752595507580031  0.7868643561154431  0.07504624443544272  1.0000
  N   N4        1.0  0.0802591040965952  0.8020555303549154  0.20085826199120405  1.0000
  H   H9        1.0  0.9236474647898667  0.4074254086727289  0.7441834182611826  1.0000
  H   H10       1.0  0.0008329352708891236  0.3419664476087454  0.43455777511449334  1.0000
  H   H11       1.0  0.03762949924463399  0.22777642098502948  0.23743063702966727  1.0000
  H   H12       1.0  0.021021084841657208  0.8082126751511709  0.44571860846331335  1.0000
  H   H13       1.0  0.9960637785873201  0.6907819178786143  0.7741515219497597  1.0000
  H   H14       1.0  0.0948605547804568  0.9408890355820755  0.9025889586893427  1.0000
  H   H15       1.0  0.11763779911724143  0.6874957552918337  0.03626755599192211  1.0000
  H   H16       1.0  0.08472901255260765  0.7214317106702586  0.2767132168562205  1.0000
  C   C23       1.0  0.9923994037798495  0.565567975794685  0.175877391140441  1.0000
  C   C24       1.0  0.07806161378175869  0.5799537947367062  0.1729138059362083  1.0000
  C   C25       1.0  0.12159091193066662  0.587120253424406  0.05427583341850318  1.0000
  C   C26       1.0  0.07830011000159565  0.5797067403157807  0.9376442571866767  1.0000
  C   C27       1.0  0.9925842407111172  0.5653193473053102  0.938660311400723  1.0000
  C   C28       1.0  0.950161663488996  0.5583361774273454  0.05821567535862937  1.0000
  C   C29       1.0  0.21221292165737204  0.6023408189414072  0.052185426026019055  1.0000
  C   C30       1.0  0.26051219326635633  0.5228356931100802  0.9691171207989903  1.0000
  C   C31       1.0  0.345804742065388  0.5373415217508983  0.9673879353744695  1.0000
  C   C32       1.0  0.3837811620926199  0.6311525340461285  0.048233982415682546  1.0000
  C   C33       1.0  0.33654187848924844  0.7106530519082277  0.13104298573012696  1.0000
  C   C34       1.0  0.25122995400738857  0.696509047198232  0.13324307003540792  1.0000
  H   H17       1.0  0.9594442428666285  0.5601077139074915  0.5044882259386663  1.0000
  H   H18       1.0  0.11123556471161145  0.5836269606150442  0.2632172080416728  1.0000
  H   H19       1.0  0.1114324744445292  0.5871605492504868  0.8457785302306213  1.0000
  H   H20       1.0  0.8840882494356666  0.5472440758779156  0.05978565377657508  1.0000
  H   H21       1.0  0.8307520755714791  0.5390793761043207  0.7332254875594515  1.0000
  H   H22       1.0  0.23242288403133826  0.4481480341805508  0.9068246166438999  1.0000
  H   H23       1.0  0.3824958559434992  0.47548768609079994  0.9035141826541935  1.0000
  H   H24       1.0  0.44981069597442347  0.6422407945745969  0.04671339302496991  1.0000
  H   H25       1.0  0.3660283429827318  0.7836198590498658  0.19339256457828458  1.0000
  H   H26       1.0  0.21573278120296124  0.7605180032235639  0.19700109733521007  1.0000
  Zn  Zn1       1.0  0.902724530325263  0.566645702031467  0.558510766127813  1.0000
  Zn  Zn2       1.0  0.0822512413789604  0.5642410380431981  0.5560264163992004  1.0000
  C   C35       1.0  0.992514212323776  0.5596217382019386  0.7944655193241623  1.0000
  C   C36       1.0  0.9924635303657543  0.5712667950262349  0.32007176750299315  1.0000
  C   C37       1.0  0.9940103259403136  0.8288135156243478  0.55266593460833  1.0000
  C   C38       1.0  0.990967345480951  0.3020732859077764  0.561871418543135  1.0000
  O   O1        1.0  0.060614466664305366  0.5722605223684076  0.3675219059918884  1.0000
  O   O2        1.0  0.06061988936423846  0.5568018388122169  0.7451294406422853  1.0000
  O   O3        1.0  0.06182710194014018  0.7741776153370243  0.5498745811810133  1.0000
  O   O4        1.0  0.059407192864195046  0.35488475701135913  0.5627766689429041  1.0000
  O   O5        1.0  0.9255685175763793  0.7760019838854715  0.5517605144250681  1.0000
  O   O6        1.0  0.9243613150050958  0.5586279398788792  0.7470153084029902  1.0000
  O   O7        1.0  0.9243558916905453  0.5740865736929855  0.36940621214967284  1.0000
  O   O8        1.0  0.9231486178509953  0.3567107979903439  0.5646610724519041  1.0000
