data_image0
_chemical_formula_structural       NC6NC2H4C6BrH5C6OCH6Zn2C4O8
_chemical_formula_sum              "N2 C25 H15 Br1 O9 Zn2"
_cell_length_a       14.927258858638513
_cell_length_b       9.276564384272257
_cell_length_c       9.27389158865715
_cell_angle_alpha    86.03089208269444
_cell_angle_beta     89.68012649256188
_cell_angle_gamma    90.58593300640023

_space_group_name_H-M_alt    "P 1"
_space_group_IT_number       1

loop_
  _space_group_symop_operation_xyz
  'x, y, z'

loop_
  _atom_site_type_symbol
  _atom_site_label
  _atom_site_symmetry_multiplicity
  _atom_site_fract_x
  _atom_site_fract_y
  _atom_site_fract_z
  _atom_site_occupancy
  N   N1        1.0  0.859026284172504  0.5638714205704085  0.4087595045893746  1.0000
  C   C1        1.0  0.7814997927874566  0.5638713921566658  0.40875951520088494  1.0000
  C   C2        1.0  0.6850672861450203  0.5638715068034221  0.40875946524960627  1.0000
  C   C3        1.0  0.638296372378278  0.5390380822841115  0.2821086706827587  1.0000
  C   C4        1.0  0.5445850616529155  0.5390381067155479  0.2821085372189134  1.0000
  C   C5        1.0  0.4972512209609233  0.5638713294239582  0.4087594840264688  1.0000
  C   C6        1.0  0.4008186473269898  0.5638714440736248  0.4087594340692642  1.0000
  N   N2        1.0  0.3232921559419427  0.5638714156598823  0.4087594446807743  1.0000
  C   C7        1.0  0.5440220677361682  0.5887047539461789  0.5354102785873902  1.0000
  C   C8        1.0  0.6377333784615307  0.588704729514743  0.5354104120512355  1.0000
  H   H1        1.0  0.6742115620326133  0.519716276721545  0.18356708365104413  1.0000
  H   H2        1.0  0.5091079077942875  0.519716474211839  0.18356707854972765  1.0000
  H   H3        1.0  0.5081069446354258  0.6080265501665041  0.6339519737000454  1.0000
  H   H4        1.0  0.6732105325614889  0.6080264603386112  0.6339519806541019  1.0000
  C   C9        1.0  0.08846321978778482  0.14039376964428518  0.4091280739903054  1.0000
  C   C10       1.0  0.07743216899421707  0.22270435937182206  0.2773890888734234  1.0000
  C   C11       1.0  0.074734095027786  0.15653789413094454  0.14688061092845883  1.0000
  C   C12       1.0  0.08305561742818646  0.0071194761018174  0.14563303131782113  1.0000
  C   C13       1.0  0.09251527527582787  0.9230975822477387  0.2753799006556916  1.0000
  C   C14       1.0  0.09386369935050404  0.9873380323882781  0.40840332309545224  1.0000
  Br  Br1       1.0  0.0800250720873461  0.9171458340682839  0.9665525969975121  1.0000
  H   H5        1.0  0.06139465514905831  0.4050606162573751  0.6434638720204193  1.0000
  H   H6        1.0  0.07301967335276527  0.33933848651360154  0.27492147020081537  1.0000
  H   H7        1.0  0.06702623125859586  0.22185219276882992  0.04647936668730601  1.0000
  H   H8        1.0  0.09667080533885569  0.8068295592193633  0.27227228794918146  1.0000
  H   H9        1.0  0.14251695281121296  0.6914309940980259  0.6328956400348484  1.0000
  C   C15       1.0  0.0926066827306773  0.5600466620563849  0.9854936586720351  1.0000
  C   C16       1.0  0.1663584644188144  0.6209568431966933  0.054015235603397826  1.0000
  C   C17       1.0  0.23509746048247745  0.6926353492399981  0.9741441527794791  1.0000
  C   C18       1.0  0.23033114753453923  0.703765024310123  0.8226940169627541  1.0000
  C   C19       1.0  0.1584558718935665  0.6419816639336762  0.752830989178968  1.0000
  C   C20       1.0  0.08972021187625101  0.5676851154901723  0.8320377635550109  1.0000
  O   O1        1.0  0.3063914180254257  0.7517699993307232  0.04930015686251332  1.0000
  C   C21       1.0  0.3806455898375787  0.8276639001766106  0.982158841329877  1.0000
  H   H10       1.0  0.8789590266698865  0.4714749434392178  0.09658669857515068  1.0000
  H   H11       1.0  0.2822874051585998  0.7588321241416631  0.7577247588596863  1.0000
  H   H12       1.0  0.9472055164716656  0.5023367986833553  0.5566510404049643  1.0000
  H   H13       1.0  0.35722077051985607  0.9252507496019117  0.9176797626017147  1.0000
  H   H14       1.0  0.41754205905150443  0.7560936332814666  0.9118074117981477  1.0000
  H   H15       1.0  0.42672266315768237  0.8621333654347243  0.06697288914533384  1.0000
  Zn  Zn1       1.0  0.9930033410125776  0.5638676301457919  0.40876781924429184  1.0000
  Zn  Zn2       1.0  0.18931499434981802  0.5638635006665695  0.40876296394287315  1.0000
  C   C22       1.0  0.09022720125576661  0.5604963977011421  0.6720277351720008  1.0000
  C   C23       1.0  0.0920932889436088  0.5672365538900901  0.14550318787712446  1.0000
  C   C24       1.0  0.09285786385055064  0.8271957340398213  0.4027965585782092  1.0000
  C   C25       1.0  0.08946254805167402  0.3005354856631363  0.4147344428013562  1.0000
  O   O2        1.0  0.1664201985373216  0.5696416888309768  0.19920201040514884  1.0000
  O   O3        1.0  0.16489628868041917  0.558087036938793  0.6183248135908204  1.0000
  O   O4        1.0  0.16701957259917638  0.7734501374503637  0.4009187323778953  1.0000
  O   O5        1.0  0.16429684806497213  0.35427859766164754  0.41660798353713235  1.0000
  O   O6        1.0  0.018021420305927023  0.7734525331536246  0.40092279964410693  1.0000
  O   O7        1.0  0.01589814769282395  0.5580911645332385  0.6183288025206657  1.0000
  O   O8        1.0  0.017422063197726892  0.5696457505357408  0.1992042664174245  1.0000
  O   O9        1.0  0.015298712287472599  0.3542826500270799  0.4166103476244236  1.0000
