data_image0
_chemical_formula_structural       NC8NC6H8C6NCOH6C8H8Zn2C4O8
_chemical_formula_sum              "N3 C33 H22 O9 Zn2"
_cell_length_a       17.457602349358154
_cell_length_b       10.299619329790078
_cell_length_c       9.275657083861812
_cell_angle_alpha    85.86033376960796
_cell_angle_beta     92.37146316173272
_cell_angle_gamma    91.71362633690529

_space_group_name_H-M_alt    "P 1"
_space_group_IT_number       1

loop_
  _space_group_symop_operation_xyz
  'x, y, z'

loop_
  _atom_site_type_symbol
  _atom_site_label
  _atom_site_symmetry_multiplicity
  _atom_site_fract_x
  _atom_site_fract_y
  _atom_site_fract_z
  _atom_site_occupancy
  N   N1        1.0  0.7298452174709171  0.4461020832170337  0.47625712138659987  1.0000
  C   C1        1.0  0.6688094226768321  0.4001245548217467  0.46447218922440975  1.0000
  C   C2        1.0  0.5928782635774023  0.34293427071639293  0.4498223215800763  1.0000
  C   C3        1.0  0.5339767808565911  0.38346374842621306  0.5329297566337413  1.0000
  C   C4        1.0  0.45948112184623974  0.32839475208579794  0.5189619258221649  1.0000
  C   C5        1.0  0.39696669621992786  0.3711890816545289  0.6069758337576051  1.0000
  C   C6        1.0  0.3227105078714805  0.3893840259827326  0.5451066374625095  1.0000
  C   C7        1.0  0.2638084205318005  0.42973010685243357  0.6283338257416005  1.0000
  C   C8        1.0  0.18812558328746615  0.4485200392290756  0.5640065743435003  1.0000
  N   N2        1.0  0.1272894961787355  0.4636207658710698  0.5122876309268503  1.0000
  C   C9        1.0  0.27866781948413755  0.45212688069157986  0.7739944639335185  1.0000
  C   C10       1.0  0.35213742250575164  0.4343228264344918  0.8362937692773138  1.0000
  C   C11       1.0  0.4110256089036874  0.3941590461920292  0.7535744654177817  1.0000
  C   C12       1.0  0.44518274892777165  0.23211182583201673  0.42029668632077766  1.0000
  C   C13       1.0  0.5040705392993751  0.1918629917900665  0.33763310904682076  1.0000
  C   C14       1.0  0.5777786463214345  0.24704706212886565  0.35221114593760616  1.0000
  H   H1        1.0  0.5459996259095524  0.45898533114841755  0.6068695380353062  1.0000
  H   H2        1.0  0.3108839798296932  0.37391318598573603  0.43190447011951566  1.0000
  H   H3        1.0  0.2335137749689966  0.48329843241480275  0.8392793777098981  1.0000
  H   H4        1.0  0.3634525655576908  0.45134950384569694  0.9490820060007331  1.0000
  H   H5        1.0  0.46727112609025573  0.37939333632207134  0.8047292676284945  1.0000
  H   H6        1.0  0.3887405740618314  0.18672379145014206  0.40847176296471543  1.0000
  H   H7        1.0  0.49256793770021334  0.11745199796711338  0.2623638991511106  1.0000
  H   H8        1.0  0.6229298858354596  0.21500831531630313  0.2874932242051371  1.0000
  C   C15       1.0  0.9284694778578149  0.07348843511218472  0.49422597643977806  1.0000
  C   C16       1.0  0.8921021948356304  0.07935292281351657  0.3560124296543299  1.0000
  C   C17       1.0  0.8749262320462097  0.9656255667962811  0.28547677709598435  1.0000
  C   C18       1.0  0.8923300714442645  0.8442050231869684  0.3561440601645547  1.0000
  C   C19       1.0  0.9286724761543532  0.8362248009730789  0.49433192864765463  1.0000
  C   C20       1.0  0.9468095727850481  0.9514852068621548  0.562343986633909  1.0000
  N   N3        1.0  0.8366426149406699  0.9753827070010814  0.1449564086509221  1.0000
  C   C21       1.0  0.8492241715884836  0.8907343114900202  0.0326722609737089  1.0000
  O   O1        1.0  0.9030361859625875  0.8114098756852917  0.04361077605826447  1.0000
  H   H9        1.0  0.9963373501145395  0.26959899050414005  0.7555847653579527  1.0000
  H   H10       1.0  0.8774844950659976  0.17256641550931917  0.3018527225613641  1.0000
  H   H11       1.0  0.8761611906760196  0.7558683032787663  0.30481387034043683  1.0000
  H   H12       1.0  0.9748537594071105  0.9460891685854725  0.6688839962103459  1.0000
  H   H13       1.0  0.8012525291461902  0.054316324357575274  0.11840128679230612  1.0000
  H   H14       1.0  0.8132544215994433  0.8975815057205555  0.9347489340127484  1.0000
  C   C22       1.0  0.9305239517705843  0.4529849483598827  0.07113588074955214  1.0000
  C   C23       1.0  0.9702765651304502  0.5537352530608513  0.1396914116678305  1.0000
  C   C24       1.0  0.003258959832184822  0.6597455207789829  0.0589548564727096  1.0000
  C   C25       1.0  0.9976267067873288  0.6641696354023796  0.9078059113340036  1.0000
  C   C26       1.0  0.9595306494055098  0.5640738031538917  0.8379480191857658  1.0000
  C   C27       1.0  0.9266180267236003  0.4567282418357359  0.9174220229083967  1.0000
  C   C28       1.0  0.04655856165656135  0.7657969138755196  0.13409204967397037  1.0000
  C   C29       1.0  0.13078597046422386  0.7324513686076133  0.15956808890563748  1.0000
  H   H15       1.0  0.8960447382907548  0.24428568420088295  0.36581343439085967  1.0000
  H   H16       1.0  0.023502274944095396  0.7446851198128419  0.8437745486967976  1.0000
  H   H17       1.0  0.836029455708791  0.30306103658400585  0.6413581050948585  1.0000
  H   H18       1.0  0.04238369729112024  0.8598933622893346  0.06788408309185034  1.0000
  H   H19       1.0  0.021055069836080523  0.7793810122248607  0.2396582002188066  1.0000
  H   H20       1.0  0.13622087134404337  0.6403043531246444  0.22879837861570285  1.0000
  H   H21       1.0  0.15777101664684826  0.7216884264120615  0.054838247271019824  1.0000
  H   H22       1.0  0.1616474484178947  0.8117701579389844  0.21494140354689512  1.0000
  Zn  Zn1       1.0  0.8445390117432037  0.4511541506657979  0.4866630674853545  1.0000
  Zn  Zn2       1.0  0.012595630373888554  0.4585581026654424  0.5018934805357906  1.0000
  C   C30       1.0  0.9273532439865234  0.4508468791539792  0.7574549246519047  1.0000
  C   C31       1.0  0.9297832330870481  0.45886709429157446  0.2311019313412297  1.0000
  C   C32       1.0  0.9286566822010762  0.6920257939663526  0.4885694738674047  1.0000
  C   C33       1.0  0.9284797367566235  0.21768661697261193  0.4999874535348139  1.0000
  O   O2        1.0  0.9933112505580873  0.4636452915936977  0.29056786081956365  1.0000
  O   O3        1.0  0.9913763131443671  0.4516871285356605  0.709548111338882  1.0000
  O   O4        1.0  0.992427989332428  0.6464421211206983  0.4924211296923163  1.0000
  O   O5        1.0  0.9922595175248073  0.2688903052946303  0.5076947292294806  1.0000
  O   O6        1.0  0.8648750672428445  0.640821945511385  0.48086181358669355  1.0000
  O   O7        1.0  0.8638233918212144  0.44606851290771177  0.6979887186192033  1.0000
  O   O8        1.0  0.8657583372697056  0.458026623048601  0.2790067356658337  1.0000
  O   O9        1.0  0.8647066037322039  0.26327162793833825  0.49613371210742835  1.0000
