data_image0
_chemical_formula_structural       NC8NH4C10H6C6H6Zn2C4O8
_chemical_formula_sum              "N2 C28 H16 Zn2 O8"
_cell_length_a       13.859017981522156
_cell_length_b       9.275150299802176
_cell_length_c       10.681121600428286
_cell_angle_alpha    85.23622488855405
_cell_angle_beta     89.99986217780584
_cell_angle_gamma    89.4839203727508

_space_group_name_H-M_alt    "P 1"
_space_group_IT_number       1

loop_
  _space_group_symop_operation_xyz
  'x, y, z'

loop_
  _atom_site_type_symbol
  _atom_site_label
  _atom_site_symmetry_multiplicity
  _atom_site_fract_x
  _atom_site_fract_y
  _atom_site_fract_z
  _atom_site_occupancy
  N   N1        1.0  0.8990733743023884  0.5790670088735526  0.6108860280763326  1.0000
  C   C1        1.0  0.8267612939138337  0.5720327821591962  0.5576533591996947  1.0000
  C   C2        1.0  0.736809332891285  0.5632834971493541  0.4914388439527433  1.0000
  C   C3        1.0  0.7367299607508697  0.54622152495658  0.36231729300714477  1.0000
  C   C4        1.0  0.6493486545569603  0.5377256936667715  0.29801448477680537  1.0000
  C   C5        1.0  0.5618646744107686  0.5462232482256761  0.36231706880570497  1.0000
  C   C6        1.0  0.5615790901312615  0.5632844709349099  0.49143867948611947  1.0000
  C   C7        1.0  0.6491427386946026  0.5718135109913461  0.5559897805031913  1.0000
  C   C8        1.0  0.47152147169569775  0.5720336863956217  0.5576531458729862  1.0000
  N   N2        1.0  0.39912445674601676  0.5790673225237155  0.6108859452116577  1.0000
  H   H1        1.0  0.8040660064258459  0.5395074970901232  0.3115093263598772  1.0000
  H   H2        1.0  0.6494282491988301  0.5245463133302901  0.1982736413058528  1.0000
  H   H3        1.0  0.4946097180141146  0.5395105964762912  0.31150894625243636  1.0000
  H   H4        1.0  0.6490629756655276  0.5850194604337814  0.6559334048299458  1.0000
  C   C9        1.0  0.15164942996029931  0.1553616314958599  0.6129824986112431  1.0000
  C   C10       1.0  0.20239177106521464  0.2374144711773494  0.5182385706323727  1.0000
  C   C11       1.0  0.24485915081520473  0.17126572071222898  0.4186798818285019  1.0000
  C   C12       1.0  0.23701511807043235  0.02209824993975217  0.41258275978357123  1.0000
  C   C13       1.0  0.1883793225626443  0.9386015754274916  0.5067638603354112  1.0000
  C   C14       1.0  0.1465576789935626  0.002761594401051053  0.6088003558532882  1.0000
  C   C15       1.0  0.295613211809539  0.25706071454996665  0.32176973057653996  1.0000
  C   C16       1.0  0.3381071875319498  0.3289163499744092  0.24063573519610748  1.0000
  C   C17       1.0  0.387865661181043  0.4130642407500411  0.1456313650337504  1.0000
  C   C18       1.0  0.4303514435158369  0.4849143938975587  0.06451292246995255  1.0000
  H   H5        1.0  0.1058956277475676  0.41768382973404555  0.8118463611315458  1.0000
  H   H6        1.0  0.20702779075254815  0.35386282355528076  0.5201732064360374  1.0000
  H   H7        1.0  0.26935982424156957  0.969953726313947  0.33554525264559315  1.0000
  H   H8        1.0  0.1854284645139138  0.8226015556411586  0.5013571816568756  1.0000
  H   H9        1.0  0.08385983908048235  0.8722883850232723  0.9063436027980425  1.0000
  H   H10       1.0  0.4676575044990686  0.5480049278392456  0.9932842299425371  1.0000
  C   C19       1.0  0.14910359085887603  0.5790616072200598  0.24314619721737166  1.0000
  C   C20       1.0  0.08052313765258412  0.49881539440998246  0.18211975395147095  1.0000
  C   C21       1.0  0.08052307685400151  0.4988154869269188  0.051237613541990974  1.0000
  C   C22       1.0  0.14910351458107268  0.5790616779484838  0.978636632544664  1.0000
  C   C23       1.0  0.2176273650688354  0.6592413906800689  0.03966282366636455  1.0000
  C   C24       1.0  0.21762735285831145  0.6592413683066161  0.1705551224398312  1.0000
  H   H11       1.0  0.21845660387453614  0.6602125775511027  0.5360034299466108  1.0000
  H   H12       1.0  0.02676654086759145  0.4359146202036553  0.2354670273342632  1.0000
  H   H13       1.0  0.02676652030790994  0.43591468812116707  0.006962997773542813  1.0000
  H   H14       1.0  0.2713909813374171  0.7221504535889753  0.9863598447434769  1.0000
  H   H15       1.0  0.2713909330265609  0.7221504030088735  0.21478421247751633  1.0000
  H   H16       1.0  0.21845690803964288  0.6602120748554687  0.674074406714066  1.0000
  Zn  Zn1       1.0  0.043377344140655756  0.5790632464459511  0.6108932515903291  1.0000
  Zn  Zn2       1.0  0.25482056034634337  0.5790593125666824  0.610889026046302  1.0000
  C   C25       1.0  0.1491359399428911  0.5733136180362481  0.8396415756613849  1.0000
  C   C26       1.0  0.14906426255856034  0.584810761459883  0.3821408158572675  1.0000
  C   C27       1.0  0.14751518639852912  0.8425849849522322  0.6046005677756512  1.0000
  C   C28       1.0  0.15068495436819607  0.3155376610299474  0.6171818990650184  1.0000
  O   O1        1.0  0.22929270004881366  0.5867324425470744  0.4287871070984829  1.0000
  O   O2        1.0  0.22938801763009398  0.5713878627419837  0.7929917222108975  1.0000
  O   O3        1.0  0.22807815695058922  0.7888278969480533  0.6031944380064633  1.0000
  O   O4        1.0  0.23060248851505863  0.3692924186638926  0.6185842973572782  1.0000
  O   O5        1.0  0.06759534381673893  0.788830140351654  0.6031979802742009  1.0000
  O   O6        1.0  0.06890519407576767  0.5713918396624488  0.7929951891514649  1.0000
  O   O7        1.0  0.0688098768608627  0.5867363691875269  0.42878906866461014  1.0000
  O   O8        1.0  0.07011966538516567  0.3692963349843703  0.6185863528638917  1.0000
