data_image0
_chemical_formula_structural       NC9NC4H8C12H9C7NC2NH8Zn2C4O8
_chemical_formula_sum              "N4 C38 H25 Zn2 O8"
_cell_length_a       16.32274767691083
_cell_length_b       10.299137764757564
_cell_length_c       9.27399911348925
_cell_angle_alpha    85.04301149889446
_cell_angle_beta     89.127461349941
_cell_angle_gamma    89.54283159448198

_space_group_name_H-M_alt    "P 1"
_space_group_IT_number       1

loop_
  _space_group_symop_operation_xyz
  'x, y, z'

loop_
  _atom_site_type_symbol
  _atom_site_label
  _atom_site_symmetry_multiplicity
  _atom_site_fract_x
  _atom_site_fract_y
  _atom_site_fract_z
  _atom_site_occupancy
  N   N1        1.0  0.7771313287281786  0.42462324684430336  0.39546519685122816  1.0000
  C   C1        1.0  0.7249962045054287  0.37764996679656293  0.33513995423640186  1.0000
  C   C2        1.0  0.6601914935097619  0.3193087873699756  0.2602155205258987  1.0000
  C   C3        1.0  0.6720847478556857  0.23950850258305745  0.1577274576295422  1.0000
  C   C4        1.0  0.592885288044494  0.20056550957343933  0.10771669111454864  1.0000
  C   C5        1.0  0.5337090780009626  0.25755761714985037  0.180914626157547  1.0000
  C   C6        1.0  0.4438358502083755  0.24249508483041193  0.16157299151395987  1.0000
  C   C7        1.0  0.3879565110238817  0.3089231309391587  0.24688169467110369  1.0000
  C   C8        1.0  0.30330291514397467  0.29604996926390714  0.2303511079115597  1.0000
  C   C9        1.0  0.2470029406014818  0.36452014232676544  0.3182815043756022  1.0000
  N   N2        1.0  0.201756751989633  0.419558897739184  0.38896265028502824  1.0000
  C   C10       1.0  0.2734760761793882  0.21664132148687829  0.12837454472408322  1.0000
  C   C11       1.0  0.32803312030208615  0.15030126122391496  0.04317921850198192  1.0000
  C   C12       1.0  0.41252939997811255  0.16282768078063947  0.05926437359917781  1.0000
  C   C13       1.0  0.5711085361986094  0.3406584535131474  0.28763867094600193  1.0000
  H   H1        1.0  0.7311247019787496  0.20847795441061723  0.11787217342017864  1.0000
  H   H2        1.0  0.5848683627396428  0.13534483787410645  0.02395311972461945  1.0000
  H   H3        1.0  0.409804374224223  0.3709149665091494  0.32649171227378115  1.0000
  H   H4        1.0  0.2081295750761691  0.2060365011356291  0.11475701965147578  1.0000
  H   H5        1.0  0.3047868116188987  0.0888712677170049  0.9642910081262023  1.0000
  H   H6        1.0  0.45253714531772943  0.10975989945083886  0.9911140349324521  1.0000
  H   H7        1.0  0.5539488926233458  0.3050325565911973  0.40046714582192533  1.0000
  H   H8        1.0  0.5544326563570328  0.4449225848110776  0.26296281926521037  1.0000
  C   C14       1.0  0.9893685801884874  0.04069081919751194  0.392372428608889  1.0000
  C   C15       1.0  0.9898399074163609  0.051729776965297125  0.24038586113399774  1.0000
  C   C16       1.0  0.9901603986079446  0.9401954843003899  0.16316572046348204  1.0000
  C   C17       1.0  0.9900031427268025  0.8164757518610377  0.2399864565815966  1.0000
  C   C18       1.0  0.9895273008229942  0.8034810992463233  0.3920678084128766  1.0000
  C   C19       1.0  0.9892143226622659  0.9161134349464973  0.4673244968270536  1.0000
  C   C20       1.0  0.9906580459080686  0.9529185361106389  0.0023789630052817334  1.0000
  C   C21       1.0  0.04033295413753635  0.8706201666531735  0.9239717752000828  1.0000
  C   C22       1.0  0.04069955454926388  0.882847885466268  0.7726259708410264  1.0000
  C   C23       1.0  0.9916025055708009  0.9770119913902939  0.6979732421365763  1.0000
  C   C24       1.0  0.9420364271192874  0.05920934183027904  0.774514825440447  1.0000
  C   C25       1.0  0.9414638061550642  0.04747896935290497  0.9258647600221264  1.0000
  H   H9        1.0  0.9910927221162175  0.14730155422649038  0.18168470352687693  1.0000
  H   H10       1.0  0.9891197837102265  0.7301795945258933  0.18104408067453037  1.0000
  H   H11       1.0  0.9888485340955174  0.9068833307602739  0.5845552582684981  1.0000
  H   H12       1.0  0.9881081815309548  0.5716690216903713  0.67912136091686  1.0000
  H   H13       1.0  0.07963653837178053  0.7980460601566127  0.9796296372605098  1.0000
  H   H14       1.0  0.07925718332226106  0.8194406146173486  0.7131841531839567  1.0000
  H   H15       1.0  0.991966080933187  0.9862846800706744  0.5808200070182803  1.0000
  H   H16       1.0  0.9038432012646362  0.13190999951567628  0.7165408897733627  1.0000
  H   H17       1.0  0.9018104648527232  0.1111248007337806  0.9830256559004719  1.0000
  C   C26       1.0  0.9908637096103124  0.4253931186558068  0.9683457251887196  1.0000
  C   C27       1.0  0.055168376392784386  0.3624345430106508  0.04587015698809528  1.0000
  C   C28       1.0  0.11404748744438997  0.29029424827620676  0.976344643043683  1.0000
  C   C29       1.0  0.11020430522996837  0.2786271386245973  0.8271117418593739  1.0000
  C   C30       1.0  0.04713322145920129  0.34376434722387894  0.7480089065044  1.0000
  C   C31       1.0  0.9880321779737267  0.418778805270406  0.8160944512138495  1.0000
  C   C32       1.0  0.1730684959435862  0.20019980060806625  0.7554842891212448  1.0000
  N   N3        1.0  0.2416715197728858  0.15400127573093614  0.822490528079348  1.0000
  C   C33       1.0  0.28132197491931366  0.08854195280992849  0.72258608579557  1.0000
  C   C34       1.0  0.23656794083355726  0.09554857735295208  0.5977267885581488  1.0000
  N   N4        1.0  0.16848424973893583  0.16571230824241723  0.618574979937573  1.0000
  H   H18       1.0  0.903680389189375  0.5903681058804213  0.23619304635593635  1.0000
  H   H19       1.0  0.05888073400958092  0.36625526849741896  0.16196292817953384  1.0000
  H   H20       1.0  0.16208726824749387  0.24187492211564712  0.04035566352050668  1.0000
  H   H21       1.0  0.04510574869283701  0.3402742901345417  0.6319363505710993  1.0000
  H   H22       1.0  0.860208372748308  0.49360704931134425  0.5322607071380691  1.0000
  H   H23       1.0  0.3392722811718643  0.03841832369505949  0.7400866868399434  1.0000
  H   H24       1.0  0.2522859792756089  0.05199278314513567  0.4988105944633521  1.0000
  H   H25       1.0  0.12213562291637083  0.1859514842802503  0.5435715412038116  1.0000
  Zn  Zn1       1.0  0.8996690311068465  0.42315823418714826  0.393597039667156  1.0000
  Zn  Zn2       1.0  0.07921901406956611  0.42101316029193664  0.3908426366952892  1.0000
  C   C35       1.0  0.9885644928057539  0.414854968919101  0.6558539186380836  1.0000
  C   C36       1.0  0.9903255129186986  0.4293180397841958  0.12858586866511645  1.0000
  C   C37       1.0  0.9895122996010963  0.6593424291932151  0.3863734681412454  1.0000
  C   C38       1.0  0.9893776442737527  0.1848290192113193  0.39806639768065444  1.0000
  O   O1        1.0  0.05828317081518519  0.4298155686001924  0.1813186453173794  1.0000
  O   O2        1.0  0.05688111865811906  0.41272840208949174  0.6010301987409853  1.0000
  O   O3        1.0  0.057645561082314146  0.6101551174902429  0.38342284189765236  1.0000
  O   O4        1.0  0.05751866748616297  0.2323888640668066  0.3989258948693318  1.0000
  O   O5        1.0  0.9213693164186784  0.6117825311457605  0.38551378242546286  1.0000
  O   O6        1.0  0.9206048745725148  0.4143573767772527  0.603121061682446  1.0000
  O   O7        1.0  0.922006932571084  0.43144451156780117  0.18340777284949028  1.0000
  O   O8        1.0  0.9212424288753174  0.23401779690053146  0.40101513062517324  1.0000
