data_image0
_chemical_formula_structural       NC6NC2H4C6ClH5C6BrH3Zn2C4O8
_chemical_formula_sum              "N2 C24 H12 Cl1 Br1 Zn2 O8"
_cell_length_a       14.927258858638513
_cell_length_b       9.276545438789551
_cell_length_c       9.275428193871798
_cell_angle_alpha    86.19890630967393
_cell_angle_beta     89.94092403990386
_cell_angle_gamma    89.40960950127158

_space_group_name_H-M_alt    "P 1"
_space_group_IT_number       1

loop_
  _space_group_symop_operation_xyz
  'x, y, z'

loop_
  _atom_site_type_symbol
  _atom_site_label
  _atom_site_symmetry_multiplicity
  _atom_site_fract_x
  _atom_site_fract_y
  _atom_site_fract_z
  _atom_site_occupancy
  N   N1        1.0  0.83458907995162  0.561217041548074  0.4114533509431737  1.0000
  C   C1        1.0  0.7570625889590034  0.5612170131537059  0.41145336151098233  1.0000
  C   C2        1.0  0.6606300807130414  0.5612171277110383  0.41145331173807986  1.0000
  C   C3        1.0  0.6138191311540461  0.5361863246770735  0.2848032607344462  1.0000
  C   C4        1.0  0.5201078197408826  0.5361863488958061  0.28480312734379787  1.0000
  C   C5        1.0  0.4728140178450265  0.5612169503776816  0.4114533302557224  1.0000
  C   C6        1.0  0.3763814426075144  0.5612170649379157  0.4114532804769  1.0000
  N   N2        1.0  0.29885495161489767  0.5612170365435476  0.41145329104470846  1.0000
  C   C7        1.0  0.5196249004124714  0.5862477534145483  0.5381033812534362  1.0000
  C   C8        1.0  0.6133362118256347  0.5862477291958157  0.5381035146440847  1.0000
  H   H1        1.0  0.6497031703583261  0.5167109472997464  0.18626225227189863  1.0000
  H   H2        1.0  0.48459951358586234  0.5167111447636238  0.1862622474546647  1.0000
  H   H3        1.0  0.4837409281855369  0.6057231216209124  0.6366444977525931  1.0000
  H   H4        1.0  0.6488445172773031  0.6057230318123412  0.6366445045761076  1.0000
  C   C9        1.0  0.0694301739186356  0.1377793684355142  0.41121579069467273  1.0000
  C   C10       1.0  0.0698549092871974  0.22002076963769387  0.27821314412109066  1.0000
  C   C11       1.0  0.062127543616887576  0.15356200160653732  0.148105324420986  1.0000
  C   C12       1.0  0.05379176511738651  0.003980328451374412  0.14899847441882086  1.0000
  C   C13       1.0  0.05475072237141035  0.920174630059915  0.27955985563764263  1.0000
  C   C14       1.0  0.06402252971090361  0.9846437652717891  0.4117033411192637  1.0000
  Cl  Cl1       1.0  0.061539370176299846  0.25843931561949085  0.983596031869091  1.0000
  H   H5        1.0  0.11510119477967427  0.40314023624123546  0.6377669415338068  1.0000
  H   H6        1.0  0.074054400497994  0.33671108855854603  0.2753601858403947  1.0000
  H   H7        1.0  0.047421632527843816  0.9521915613844303  0.048339296190829106  1.0000
  H   H8        1.0  0.050372767124067686  0.8038860727579079  0.276910117812297  1.0000
  H   H9        1.0  0.033841815896331395  0.6883785339909009  0.6447142581556352  1.0000
  C   C15       1.0  0.06702557643949447  0.5567252806312744  0.9883032850356669  1.0000
  C   C16       1.0  0.14953103890937935  0.5594097471906387  0.061350145473603186  1.0000
  C   C17       1.0  0.22981192813750773  0.5752530256975996  0.9848225210186916  1.0000
  C   C18       1.0  0.22885140021669004  0.58883201752035  0.8342730954167537  1.0000
  C   C19       1.0  0.1479247650940061  0.5840672825551477  0.759717890541403  1.0000
  C   C20       1.0  0.06642712944735818  0.56569782497248  0.834615839640573  1.0000
  Br  Br1       1.0  0.3408501225288423  0.5807655688596736  0.0863896136878366  1.0000
  H   H10       1.0  0.8510543864747553  0.6281754311656367  0.08690979513912135  1.0000
  H   H11       1.0  0.2909677051371735  0.6017178120669733  0.7747006382981754  1.0000
  H   H12       1.0  0.9207594586152992  0.6077040084141927  0.5509039337657962  1.0000
  Zn  Zn1       1.0  0.9685662085829326  0.5612132645857033  0.41146165779183774  1.0000
  Zn  Zn2       1.0  0.16487790092635413  0.5612091278353564  0.4114567979717698  1.0000
  C   C21       1.0  0.06657491046138399  0.5582574245497283  0.6746413328743501  1.0000
  C   C22       1.0  0.06687133104781198  0.5641667887013311  0.14827726531680363  1.0000
  C   C23       1.0  0.0650441216271771  0.8245074558969183  0.4058689473658217  1.0000
  C   C24       1.0  0.06840206390262461  0.29791502575048856  0.4170497266548878  1.0000
  O   O1        1.0  0.14131886921221143  0.5666563661841033  0.20196414658156736  1.0000
  O   O2        1.0  0.14112341168175152  0.5557636151756988  0.6209503476832656  1.0000
  O   O3        1.0  0.13988627499339112  0.7707638985862533  0.40391474566392227  1.0000
  O   O4        1.0  0.14255593892322593  0.351656091944512  0.4189996405643013  1.0000
  O   O5        1.0  0.9908881035945102  0.770766300479449  0.4039188151933859  1.0000
  O   O6        1.0  0.9921252292707139  0.5557677486754468  0.6209543413772536  1.0000
  O   O7        1.0  0.9923206884067447  0.5666604310680291  0.20196640776012467  1.0000
  O   O8        1.0  0.9935577581035543  0.35166014766037534  0.41900200977354785  1.0000
