data_image0
_chemical_formula_structural       NC12NC2H8C6NO2H5C7F3H5Zn2C4O8
_chemical_formula_sum              "N3 C31 H18 O10 F3 Zn2"
_cell_length_a       17.80743265337812
_cell_length_b       9.273423624067512
_cell_length_c       10.299327507215196
_cell_angle_alpha    85.48897666970593
_cell_angle_beta     91.5153373633688
_cell_angle_gamma    90.04087344610896

_space_group_name_H-M_alt    "P 1"
_space_group_IT_number       1

loop_
  _space_group_symop_operation_xyz
  'x, y, z'

loop_
  _atom_site_type_symbol
  _atom_site_label
  _atom_site_symmetry_multiplicity
  _atom_site_fract_x
  _atom_site_fract_y
  _atom_site_fract_z
  _atom_site_occupancy
  N   N1        1.0  0.716257583896067  0.5625506940589478  0.6001808361625587  1.0000
  C   C1        1.0  0.665630587948661  0.5953894009388137  0.5314575776714847  1.0000
  C   C2        1.0  0.602645575543466  0.6362383681784891  0.4459744939212608  1.0000
  C   C3        1.0  0.6147248361704312  0.6962534281416715  0.31930991939324427  1.0000
  C   C4        1.0  0.5536375695122616  0.7354320939646177  0.23622405565972035  1.0000
  C   C5        1.0  0.4803184664305664  0.7148884045215033  0.279142645339633  1.0000
  C   C6        1.0  0.4672616226082076  0.6547413362666157  0.4062754626569176  1.0000
  C   C7        1.0  0.5292062282145655  0.6155662864622484  0.48934481192308116  1.0000
  C   C8        1.0  0.3893669962728511  0.6329598621416836  0.45205527234698084  1.0000
  C   C9        1.0  0.3707240412720349  0.6631404812568651  0.5790788181160134  1.0000
  C   C10       1.0  0.2973752384356084  0.6426429619851426  0.6220379374896351  1.0000
  C   C11       1.0  0.24172472040076723  0.591682309184036  0.5388116925936826  1.0000
  C   C12       1.0  0.16623569032732732  0.5705706098450785  0.5831721987151466  1.0000
  N   N2        1.0  0.10554785554406161  0.5535982234466397  0.6188349939539352  1.0000
  C   C13       1.0  0.2596750550787632  0.5613140177021181  0.41233125775573765  1.0000
  C   C14       1.0  0.33297113874023704  0.5818279888862465  0.3691162370889487  1.0000
  H   H1        1.0  0.6712870517519364  0.7127220086824426  0.2848606339982622  1.0000
  H   H2        1.0  0.5631097984351144  0.7822001552977884  0.13841008373910513  1.0000
  H   H3        1.0  0.4338715337917854  0.7478118370684639  0.21352729915952984  1.0000
  H   H4        1.0  0.5204239616578266  0.5672595956114037  0.5870354571352867  1.0000
  H   H5        1.0  0.4126153353150079  0.7044273643770093  0.6446224670094338  1.0000
  H   H6        1.0  0.2840475122082052  0.6668951073130982  0.720030056302648  1.0000
  H   H7        1.0  0.21707453188089  0.5214346399586547  0.3471995425364329  1.0000
  H   H8        1.0  0.3457610578914148  0.5558702960416382  0.2714286980285616  1.0000
  C   C15       1.0  0.9085798491424788  0.13449323936745183  0.6098313511010608  1.0000
  C   C16       1.0  0.8977069535780609  0.21863809040898755  0.4911017568628639  1.0000
  C   C17       1.0  0.8937853970409257  0.15470567978403651  0.3719819038139396  1.0000
  C   C18       1.0  0.9009854878548264  0.004088094136852405  0.3723777784855167  1.0000
  C   C19       1.0  0.9105324576851193  0.9188788678166295  0.48936330949564844  1.0000
  C   C20       1.0  0.913232716325251  0.9816444872160432  0.6091960090066908  1.0000
  N   N3        1.0  0.8832751031881076  0.24275808487141126  0.2513560514154225  1.0000
  O   O1        1.0  0.876067295860908  0.3905316250122115  0.2510832502041245  1.0000
  O   O2        1.0  0.88030698284577  0.18652661167082085  0.14509374093474214  1.0000
  H   H9        1.0  0.8884907385230878  0.396113366148657  0.8220181369837855  1.0000
  H   H10       1.0  0.8940491972832385  0.3351918086694894  0.4912732620706492  1.0000
  H   H11       1.0  0.898473164226282  0.9517121741268483  0.2820697681880884  1.0000
  H   H12       1.0  0.9140214094853939  0.8025688758962966  0.4862597157879979  1.0000
  H   H13       1.0  0.8796967896259937  0.8514108990886158  0.9222797198058583  1.0000
  C   C21       1.0  0.9109785386807344  0.5581257732111997  0.22813550825035464  1.0000
  C   C22       1.0  0.9842929902975383  0.6142833982083404  0.2263195415422321  1.0000
  C   C23       1.0  0.020742179060395216  0.6450736006192219  0.10807908999863569  1.0000
  C   C24       1.0  0.9841032646894046  0.6141347833100539  0.9910731475305294  1.0000
  C   C25       1.0  0.9108340517551886  0.5580119285417244  0.9908918796759542  1.0000
  C   C26       1.0  0.8745879786382443  0.5308702078099861  0.10991093016689524  1.0000
  C   C27       1.0  0.10044959814305754  0.7004469935809383  0.10757824597382636  1.0000
  F   F1        1.0  0.11403333546383432  0.7843780577865076  0.21103497823427153  1.0000
  F   F2        1.0  0.14943532992555267  0.5843008655094695  0.11791103197355635  1.0000
  F   F3        1.0  0.11382686862932467  0.7843632329690253  0.9933817008613013  1.0000
  H   H14       1.0  0.7731219011749138  0.4497264348733947  0.43899477056397623  1.0000
  H   H15       1.0  0.01321121470370135  0.6339085787998753  0.3170812289577212  1.0000
  H   H16       1.0  0.012891332374852073  0.6336541445444237  0.9000521453793077  1.0000
  H   H17       1.0  0.8180804459868175  0.48758996350617645  0.11050561460986062  1.0000
  H   H18       1.0  0.8831428438744008  0.5340565537462127  0.6635583478804241  1.0000
  Zn  Zn1       1.0  0.828598327929706  0.5599633522468086  0.605571513151546  1.0000
  Zn  Zn2       1.0  0.9932070423862351  0.5561737976697474  0.6134549190973254  1.0000
  C   C28       1.0  0.9108281054129592  0.5522871342124189  0.8467188100480456  1.0000
  C   C29       1.0  0.9109790723969448  0.5638517942952452  0.37230783439200166  1.0000
  C   C30       1.0  0.9123503401164073  0.821515690769464  0.6041406303339352  1.0000
  C   C31       1.0  0.9094567719926165  0.29462150601462356  0.6148860819560522  1.0000
  O   O3        1.0  0.9734473662249908  0.5643290902062308  0.42368510026669787  1.0000
  O   O4        1.0  0.973294011165264  0.5489325659534374  0.8013244938375621  1.0000
  O   O5        1.0  0.974522392583204  0.7663380494179575  0.605440855982461  1.0000
  O   O6        1.0  0.9722189287123691  0.34692361836788566  0.6195686380469552  1.0000
  O   O7        1.0  0.8495863854307064  0.7692135328434304  0.5994577915048646  1.0000
  O   O8        1.0  0.8483580135407803  0.5518097823972465  0.7953413588129737  1.0000
  O   O9        1.0  0.8485113686702199  0.5672062566168192  0.4177004038435852  1.0000
  O   O10       1.0  0.8472829310794143  0.3498007744470588  0.6135840390016349  1.0000
