data_image0
_chemical_formula_structural       NC12NC2H8C6OCH8C7OIH5Zn2C4O8
_chemical_formula_sum              "N2 C32 H21 O10 I1 Zn2"
_cell_length_a       19.240039667572717
_cell_length_b       10.300308824427217
_cell_length_c       10.297413674417342
_cell_angle_alpha    85.55846743624085
_cell_angle_beta     90.01510859860609
_cell_angle_gamma    89.9964728207325

_space_group_name_H-M_alt    "P 1"
_space_group_IT_number       1

loop_
  _space_group_symop_operation_xyz
  'x, y, z'

loop_
  _atom_site_type_symbol
  _atom_site_label
  _atom_site_symmetry_multiplicity
  _atom_site_fract_x
  _atom_site_fract_y
  _atom_site_fract_z
  _atom_site_occupancy
  N   N1        1.0  0.6542280805608923  0.42138665857768326  0.5673320820985777  1.0000
  C   C1        1.0  0.5940797117292782  0.42138674256519804  0.5673320001552293  1.0000
  C   C2        1.0  0.5192616745648688  0.42138685986299934  0.5673318628366041  1.0000
  C   C3        1.0  0.48280468279111427  0.3569107880175122  0.6707576001065672  1.0000
  C   C4        1.0  0.41013395055993906  0.3567999016339769  0.6708441459964918  1.0000
  C   C5        1.0  0.37292943959234637  0.42138695245527863  0.5673316351179025  1.0000
  C   C6        1.0  0.4101006070332735  0.48597419022151134  0.46381931884821676  1.0000
  C   C7        1.0  0.4827713113908707  0.4858630683366441  0.46390598723300847  1.0000
  C   C8        1.0  0.29572434914184  0.4213868738135344  0.5673315396706401  1.0000
  C   C9        1.0  0.2585461812716103  0.30812769194038925  0.6091956226723472  1.0000
  C   C10       1.0  0.1858754764741835  0.3082345982798138  0.6091042921970949  1.0000
  C   C11       1.0  0.1493920622314959  0.421386744640545  0.5673316005762148  1.0000
  C   C12       1.0  0.0745740251153934  0.4213866308688481  0.5673318492754452  1.0000
  N   N2        1.0  0.014425708294061696  0.421386590017385  0.5673320577346037  1.0000
  C   C13       1.0  0.18585615883545703  0.5345389668314853  0.5255588560636055  1.0000
  C   C14       1.0  0.2585268386111591  0.5346460533034665  0.5254673629833977  1.0000
  H   H1        1.0  0.5105325909837981  0.3069919109045802  0.75150953649573  1.0000
  H   H2        1.0  0.3830538172207413  0.307678890247016  0.7527119440831145  1.0000
  H   H3        1.0  0.38299420957627356  0.5350952286665454  0.38195146990583706  1.0000
  H   H4        1.0  0.5104731747035055  0.535781845153265  0.3831543266854962  1.0000
  H   H5        1.0  0.2856467922699971  0.21897382084988387  0.6403576000334592  1.0000
  H   H6        1.0  0.15816808652655506  0.21997969313003551  0.6412995872885736  1.0000
  H   H7        1.0  0.1581337253381578  0.6227938474439432  0.49336357552231364  1.0000
  H   H8        1.0  0.2856127064210542  0.6238000035717652  0.49430534085202554  1.0000
  C   C15       1.0  0.834336768965204  0.04004356536748355  0.5673001834362086  1.0000
  C   C16       1.0  0.8570828815771905  0.04905185129837975  0.4372911607791681  1.0000
  C   C17       1.0  0.8685282587238246  0.9360052895040893  0.3718735360166352  1.0000
  C   C18       1.0  0.8570561176725134  0.8138937853807786  0.4374445346167739  1.0000
  C   C19       1.0  0.8343237100079159  0.8027196861690526  0.5673751392013691  1.0000
  C   C20       1.0  0.823082293651565  0.9164122128407474  0.6316270409932498  1.0000
  O   O1        1.0  0.8912328547496915  0.9406954292021077  0.24210234231428207  1.0000
  C   C21       1.0  0.9050260021827111  0.05757612169408621  0.1632661812759526  1.0000
  H   H9        1.0  0.8256703533559308  0.36404086695391236  0.6168375399205257  1.0000
  H   H10       1.0  0.8658151506609243  0.1439115931450321  0.3873801786171882  1.0000
  H   H11       1.0  0.8660495708261631  0.7276013314094474  0.38604130812057313  1.0000
  H   H12       1.0  0.8055427127825968  0.9086622550879315  0.7318773782572671  1.0000
  H   H13       1.0  0.8257210020573761  0.4710817694908099  0.6165466789888581  1.0000
  H   H14       1.0  0.8571581241252764  0.11765924204209988  0.15213255524198124  1.0000
  H   H15       1.0  0.9221386745021471  0.032452025977930406  0.06545614218050244  1.0000
  H   H16       1.0  0.9471121394445585  0.11336599646086643  0.20744747298126898  1.0000
  C   C22       1.0  0.8342759215192425  0.42143403576411265  0.18588524479578994  1.0000
  C   C23       1.0  0.7693240887926756  0.4839836668001294  0.17982032450145935  1.0000
  C   C24       1.0  0.7363360821777979  0.5157515412204989  0.05962474101858995  1.0000
  C   C25       1.0  0.7694493116041465  0.48386293588582086  0.9446324792454478  1.0000
  C   C26       1.0  0.8343845566173006  0.42132923205367145  0.948790139445579  1.0000
  C   C27       1.0  0.8664000894837053  0.390497855555505  0.06987711046572032  1.0000
  C   C28       1.0  0.6676516864135931  0.5818955606474976  0.05575008114723423  1.0000
  O   O2        1.0  0.6389055668061762  0.6095778733973027  0.16001677459901267  1.0000
  I   I1        1.0  0.6134153839087088  0.6341269747631944  0.8803045953598071  1.0000
  H   H17       1.0  0.9569102553358789  0.3033342265924519  0.4045503982454171  1.0000
  H   H18       1.0  0.7443639783058893  0.5080207126532463  0.26913468202525626  1.0000
  H   H19       1.0  0.74498793178632  0.5074193684053485  0.851328153781481  1.0000
  H   H20       1.0  0.9164677832857187  0.34228191902374117  0.07374526166880037  1.0000
  H   H21       1.0  0.859523054224837  0.39712082782577157  0.622843650453942  1.0000
  Zn  Zn1       1.0  0.7581733455250294  0.4213831707966722  0.5673395647924613  1.0000
  Zn  Zn2       1.0  0.9104804637919657  0.4213794835800597  0.5673351752201459  1.0000
  C   C29       1.0  0.8343625480359084  0.41617572317450846  0.8045842317004165  1.0000
  C   C30       1.0  0.834292924460147  0.42658856965296205  0.33009063591968313  1.0000
  C   C31       1.0  0.8343218519382625  0.6585583978374188  0.5621846779240656  1.0000
  C   C32       1.0  0.8343335686226243  0.18420433478497733  0.5724902587979571  1.0000
  O   O3        1.0  0.8920983885266383  0.4283114136764347  0.3784856161366608  1.0000
  O   O4        1.0  0.8921546625507517  0.41444910103421106  0.7561855458754232  1.0000
  O   O5        1.0  0.8921210209611575  0.610176176005139  0.5604461913391474  1.0000
  O   O6        1.0  0.8921319781301037  0.23258434800973576  0.5742248732793576  1.0000
  O   O7        1.0  0.7765217792119457  0.6101783063696695  0.560449866727915  1.0000
  O   O8        1.0  0.7765554207617631  0.41445279160648907  0.7561891521569335  1.0000
  O   O9        1.0  0.7764991465622927  0.42831505921033486  0.37848766067113226  1.0000
  O   O10       1.0  0.7765327361769414  0.2325879842420795  0.5742270152020741  1.0000
