data_image0
_chemical_formula_structural       NC9NC5H8C7NH5C6FH3Zn2C4O8
_chemical_formula_sum              "N3 C31 H16 F1 Zn2 O8"
_cell_length_a       17.807436237873137
_cell_length_b       10.302819778424748
_cell_length_c       9.275646106892307
_cell_angle_alpha    84.95237356290208
_cell_angle_beta     89.39821068290671
_cell_angle_gamma    88.39001009685678

_space_group_name_H-M_alt    "P 1"
_space_group_IT_number       1

loop_
  _space_group_symop_operation_xyz
  'x, y, z'

loop_
  _atom_site_type_symbol
  _atom_site_label
  _atom_site_symmetry_multiplicity
  _atom_site_fract_x
  _atom_site_fract_y
  _atom_site_fract_z
  _atom_site_occupancy
  N   N1        1.0  0.7070810924845653  0.40273030880348276  0.3964469339368144  1.0000
  C   C1        1.0  0.6464910484106283  0.3676689849316819  0.3841953301867409  1.0000
  C   C2        1.0  0.5711236929882558  0.32405655937212363  0.36895566538666524  1.0000
  C   C3        1.0  0.5530082832986079  0.25378394964815  0.2522592656481044  1.0000
  C   C4        1.0  0.4798304512732592  0.21132906669056783  0.23737070305340602  1.0000
  C   C5        1.0  0.4237193030832658  0.2387697254790926  0.3391424743837801  1.0000
  C   C6        1.0  0.3459501503149704  0.19376512436252066  0.32341100260170097  1.0000
  C   C7        1.0  0.2837797138723046  0.27521948360956844  0.35223861911175036  1.0000
  C   C8        1.0  0.21045958015087463  0.23256147858165074  0.33736526109641596  1.0000
  C   C9        1.0  0.14723913670547  0.3167024838984791  0.3665973077233524  1.0000
  N   N2        1.0  0.09642288830319021  0.3843460192949902  0.39009906581603837  1.0000
  C   C10       1.0  0.1987263322695847  0.10819148371187493  0.29363611361998965  1.0000
  C   C11       1.0  0.2600393969743122  0.026723365938195347  0.26479917309515577  1.0000
  C   C12       1.0  0.3332400524646274  0.06898911203618141  0.27944743704320474  1.0000
  C   C13       1.0  0.442526167290313  0.30953421084137833  0.4560825183028445  1.0000
  C   C14       1.0  0.5157568351012798  0.35180041874170165  0.4707980961569535  1.0000
  H   H1        1.0  0.5953868122021615  0.23207094076147738  0.172560289674224  1.0000
  H   H2        1.0  0.46689895062454545  0.15854815494070928  0.14521587652955747  1.0000
  H   H3        1.0  0.2922837629057212  0.3723463881713603  0.38433155740518  1.0000
  H   H4        1.0  0.14225889151131918  0.0742789122334302  0.2818613294170722  1.0000
  H   H5        1.0  0.2508367286596697  0.9304291213357717  0.2313721414899539  1.0000
  H   H6        1.0  0.37987654334557147  0.0034674693306482336  0.2582777058072103  1.0000
  H   H7        1.0  0.4008648147809666  0.3306945198931588  0.53722015271451  1.0000
  H   H8        1.0  0.5292164468992637  0.40581265958923574  0.5617952969102216  1.0000
  C   C15       1.0  0.9017555743075113  0.012284918456164643  0.3932791776698068  1.0000
  C   C16       1.0  0.8579305552539224  0.0032435388420015672  0.5203830884914138  1.0000
  C   C17       1.0  0.8361271764337024  0.8816427878444876  0.5836184865092711  1.0000
  C   C18       1.0  0.8579306158881818  0.7679425261229103  0.5203830922328121  1.0000
  C   C19       1.0  0.901755586699595  0.7747809446420174  0.393279220366227  1.0000
  C   C20       1.0  0.9234391342227588  0.8974614498213503  0.33039137532678753  1.0000
  C   C21       1.0  0.7912001799574836  0.8735031531451342  0.7139186711368537  1.0000
  N   N3        1.0  0.7550935759128852  0.8669615815571131  0.8186372791089582  1.0000
  H   H9        1.0  0.9183554221286901  0.34303200979772  0.34513469172003663  1.0000
  H   H10       1.0  0.8406464562453605  0.09053639392072663  0.5705112214530927  1.0000
  H   H11       1.0  0.8406465500011893  0.674386785698074  0.5705111856362395  1.0000
  H   H12       1.0  0.9572354403202131  0.9035843973256437  0.23237341527393032  1.0000
  H   H13       1.0  0.9183554910711909  0.45004892490368953  0.34513480029318466  1.0000
  C   C22       1.0  0.901668144785144  0.3976006351319725  0.9694401884939592  1.0000
  C   C23       1.0  0.9704558218695502  0.4079217240441355  0.04037953025895913  1.0000
  C   C24       1.0  0.03831228717853152  0.4060962716369694  0.9638273831560517  1.0000
  C   C25       1.0  0.03857278677920717  0.39378736432302786  0.8154468804962627  1.0000
  C   C26       1.0  0.9709623544634542  0.385575412872444  0.7425563861132476  1.0000
  C   C27       1.0  0.9018429846559433  0.3894652944667462  0.8171182202480236  1.0000
  F   F1        1.0  0.10410258381385562  0.4147111392808287  0.034189955039709334  1.0000
  H   H14       1.0  0.7274644681885838  0.30034919936983595  0.08543329820407974  1.0000
  H   H15       1.0  0.09125490357242594  0.39184291205274446  0.7562725906921296  1.0000
  H   H16       1.0  0.7839069384076119  0.3293611839386931  0.5441952866274753  1.0000
  Zn  Zn1       1.0  0.8194367250411048  0.3974214556306656  0.39462342352952784  1.0000
  Zn  Zn2       1.0  0.9840672399970996  0.38964417563391773  0.39193444180608217  1.0000
  C   C28       1.0  0.9018082824803415  0.3858310045690412  0.656888950266362  1.0000
  C   C29       1.0  0.9016974803472121  0.40123617852997673  0.12966902736717478  1.0000
  C   C30       1.0  0.9017505288084341  0.6307083835763578  0.38752779586949715  1.0000
  C   C31       1.0  0.9017551778580852  0.15635724160956024  0.39903025963068606  1.0000
  O   O1        1.0  0.9641837480764132  0.39949919885857677  0.18242283485082522  1.0000
  O   O2        1.0  0.964272766226204  0.38166423323957116  0.6020938523949733  1.0000
  O   O3        1.0  0.9642252875032802  0.5794058390687429  0.3845828282011625  1.0000
  O   O4        1.0  0.9642311705997698  0.20175760600926118  0.39993375174367324  1.0000
  O   O5        1.0  0.8392727382581183  0.5853080279108125  0.38662411450196243  1.0000
  O   O6        1.0  0.8393202169617593  0.38756798265023035  0.6041350617391525  1.0000
  O   O7        1.0  0.83923119850396  0.4054029196785595  0.1844623089123967  1.0000
  O   O8        1.0  0.8392786210465668  0.20766131650487796  0.4019733340162335  1.0000
