data_image0
_chemical_formula_structural       NC8NH4C6BrH5C6NH7Zn2C4O8
_chemical_formula_sum              "N3 C24 H16 Br1 Zn2 O8"
_cell_length_a       13.859017124695912
_cell_length_b       9.276564384272257
_cell_length_c       9.274774538082514
_cell_angle_alpha    85.01137938942293
_cell_angle_beta     90.34965622944028
_cell_angle_gamma    90.58596084768166

_space_group_name_H-M_alt    "P 1"
_space_group_IT_number       1

loop_
  _space_group_symop_operation_xyz
  'x, y, z'

loop_
  _atom_site_type_symbol
  _atom_site_label
  _atom_site_symmetry_multiplicity
  _atom_site_fract_x
  _atom_site_fract_y
  _atom_site_fract_z
  _atom_site_occupancy
  N   N1        1.0  0.9129807522308626  0.5920962403872241  0.40670129132571003  1.0000
  C   C1        1.0  0.8402435293518331  0.5697271698107047  0.35048426565032553  1.0000
  C   C2        1.0  0.7497627719796175  0.5419033281406389  0.2805575104172043  1.0000
  C   C3        1.0  0.6626116687269541  0.5690287742521523  0.3487272983349645  1.0000
  C   C4        1.0  0.5745324581718976  0.5419045589789231  0.280556929326645  1.0000
  C   C5        1.0  0.5737866242584  0.4876475801788543  0.14419584632993046  1.0000
  C   C6        1.0  0.6607569525555617  0.46062638582715065  0.07628846230856647  1.0000
  C   C7        1.0  0.7486519718077264  0.48764522051670944  0.14419702820185232  1.0000
  C   C8        1.0  0.48500369496578166  0.5697281006786945  0.35048376620131505  1.0000
  N   N2        1.0  0.41303187915582695  0.5920965648707908  0.4067010747621721  1.0000
  H   H1        1.0  0.6633301708241415  0.6110258135244582  0.45427404279773076  1.0000
  H   H2        1.0  0.5061259278430816  0.46629889857699003  0.09053875904282571  1.0000
  H   H3        1.0  0.6600399767132282  0.4187151485368985  0.9709554671945827  1.0000
  H   H4        1.0  0.8155821227925971  0.4662944295366591  0.09054094322096051  1.0000
  C   C9        1.0  0.16010534000709709  0.16861223828933736  0.40707025911315853  1.0000
  C   C10       1.0  0.14720913545251757  0.2532594974492983  0.2751609023086524  1.0000
  C   C11       1.0  0.14329768638302331  0.1894078826739456  0.14448364122394075  1.0000
  C   C12       1.0  0.15225101388623874  0.04001159994545511  0.14323444530395335  1.0000
  C   C13       1.0  0.16343935696276438  0.9536883699041968  0.2731491105012136  1.0000
  C   C14       1.0  0.16591650082350706  0.015569360455046196  0.40634456906967475  1.0000
  Br  Br1       1.0  0.14760727872479862  0.9532143377488895  0.963922410796784  1.0000
  H   H5        1.0  0.13275562587343348  0.429122606181985  0.6417091282794991  1.0000
  H   H6        1.0  0.14243751821521267  0.3699373896119584  0.2726900938185226  1.0000
  H   H7        1.0  0.13422223674885636  0.2565030102209034  0.043952552648331755  1.0000
  H   H8        1.0  0.16789125151832818  0.8374754705413086  0.2700374773622678  1.0000
  H   H9        1.0  0.22004934897110373  0.7156805005179676  0.6311272009298192  1.0000
  C   C15       1.0  0.1613045876438628  0.5957792148857526  0.9828879642831887  1.0000
  C   C16       1.0  0.230258771179094  0.6808807339997817  0.04955153259950462  1.0000
  C   C17       1.0  0.30346023918082143  0.7541030234329966  0.9687238505598743  1.0000
  C   C18       1.0  0.3082985998580625  0.742555883438534  0.8197563265129519  1.0000
  C   C19       1.0  0.23967577900030057  0.6606311817876227  0.7513874737171167  1.0000
  C   C20       1.0  0.16471724019165235  0.5884023729028625  0.8305269094438757  1.0000
  N   N3        1.0  0.373520747242019  0.8390039148071182  0.03839283544989992  1.0000
  H   H10       1.0  0.015142837018320867  0.3138725158824575  0.10904986724022382  1.0000
  H   H11       1.0  0.22856884865965668  0.6877202525597381  0.16556580280813551  1.0000
  H   H12       1.0  0.3648100347434131  0.7982731625235525  0.7561777954602218  1.0000
  H   H13       1.0  0.24395089072790666  0.6566197946051413  0.6352178591990065  1.0000
  H   H14       1.0  0.06333892498433169  0.4029184871646645  0.5646040863679246  1.0000
  H   H15       1.0  0.37078085826054696  0.8480473149650195  0.14975501142589986  1.0000
  H   H16       1.0  0.428631713764867  0.893587146242822  0.9791039612393329  1.0000
  Zn  Zn1       1.0  0.05728471592718499  0.5920924112197479  0.4067095710248112  1.0000
  Zn  Zn2       1.0  0.2687278747677029  0.5920885271862986  0.40670464246841487  1.0000
  C   C21       1.0  0.16403061120200912  0.5840517685804443  0.6703099226794409  1.0000
  C   C22       1.0  0.16198430150041188  0.6001309881254644  0.14310443085589086  1.0000
  C   C23       1.0  0.16478994300985117  0.8555265094941917  0.40073055377677674  1.0000
  C   C24       1.0  0.16122488596377815  0.328654513934018  0.41268387819032504  1.0000
  O   O1        1.0  0.24245395334783693  0.601583717589548  0.1968726756619757  1.0000
  O   O2        1.0  0.2440414153157844  0.5825950069256025  0.6165375226859613  1.0000
  O   O3        1.0  0.24465350970075028  0.8018142804398303  0.3988502737188158  1.0000
  O   O4        1.0  0.2418417864467488  0.3823644553345593  0.41455981640842376  1.0000
  O   O5        1.0  0.0841707320929459  0.8018164830744483  0.39885439707889137  1.0000
  O   O6        1.0  0.08355864928157852  0.5825989428408808  0.6165415676083561  1.0000
  O   O7        1.0  0.08197118004694359  0.6015876183522242  0.19687498542565107  1.0000
  O   O8        1.0  0.08135901350678543  0.38236834484095783  0.41456223438688555  1.0000
