data_image0
_chemical_formula_structural       NC10NC3NCH9C6NCOC6H11C7OC6OCH12Zn2C4O8
_chemical_formula_sum              "N4 C45 H32 O11 Zn2"
_cell_length_a       19.437513618241372
_cell_length_b       10.29965916528486
_cell_length_c       10.299362532796529
_cell_angle_alpha    85.59689086151258
_cell_angle_beta     90.36260544927384
_cell_angle_gamma    89.53922106887035

_space_group_name_H-M_alt    "P 1"
_space_group_IT_number       1

loop_
  _space_group_symop_operation_xyz
  'x, y, z'

loop_
  _atom_site_type_symbol
  _atom_site_label
  _atom_site_symmetry_multiplicity
  _atom_site_fract_x
  _atom_site_fract_y
  _atom_site_fract_z
  _atom_site_occupancy
  N   N1        1.0  0.6478680141819295  0.4100072952480651  0.5762096054400265  1.0000
  C   C1        1.0  0.5889368567340706  0.42701604904217305  0.5732405610738904  1.0000
  C   C2        1.0  0.5154991106535616  0.44826693557892977  0.5695552552986156  1.0000
  C   C3        1.0  0.47371841435241324  0.34707737848898473  0.5578546028854574  1.0000
  C   C4        1.0  0.3978287496985123  0.3571400454609581  0.5506373937890592  1.0000
  C   C5        1.0  0.3582793756958301  0.43800203662953563  0.6164127913537027  1.0000
  C   C6        1.0  0.2820942311347467  0.42939199535390193  0.6079651914360215  1.0000
  C   C7        1.0  0.2489398520569299  0.30805240275046053  0.6125589104157263  1.0000
  C   C8        1.0  0.1772028337398174  0.30167910952690424  0.605388266091842  1.0000
  C   C9        1.0  0.137649559506632  0.4161728268391105  0.5939859400747658  1.0000
  C   C10       1.0  0.06379798275872553  0.40946132402694463  0.5866470664989476  1.0000
  N   N2        1.0  0.004426413261847402  0.40406586592281446  0.5807470707896856  1.0000
  C   C11       1.0  0.1700874310426425  0.5372020369867341  0.5901373679712931  1.0000
  C   C12       1.0  0.24180890644676625  0.5438293279633772  0.5973701374596609  1.0000
  C   C13       1.0  0.3869948837829486  0.5303052335695273  0.7063702286942373  1.0000
  N   N3        1.0  0.4439864645065505  0.5935108727279247  0.6859919568511643  1.0000
  C   C14       1.0  0.4878041980363129  0.5842235763295625  0.5728809507360921  1.0000
  H   H1        1.0  0.4960845276273566  0.2520214836134633  0.5456945416170353  1.0000
  H   H2        1.0  0.37309208480195777  0.28761653804400455  0.4922909951145314  1.0000
  H   H3        1.0  0.2783775323029022  0.21814614467791318  0.6235429346104822  1.0000
  H   H4        1.0  0.15259455130386654  0.20745692070925828  0.6092368710583476  1.0000
  H   H5        1.0  0.13996480050187593  0.6264539471271253  0.5814652165306433  1.0000
  H   H6        1.0  0.2659357319050708  0.638464298923249  0.5935062416562462  1.0000
  H   H7        1.0  0.3570110580880506  0.5507097519445552  0.79074496379688  1.0000
  H   H8        1.0  0.530569435532967  0.6545349934770801  0.5786731031764507  1.0000
  H   H9        1.0  0.4581244745571775  0.6123103155817748  0.48224715630644877  1.0000
  C   C15       1.0  0.8260899776779662  0.025676784495915816  0.57836215205383  1.0000
  C   C16       1.0  0.8265384239065018  0.034907925555252246  0.44155458450825674  1.0000
  C   C17       1.0  0.8277788741969193  0.922705396336974  0.3727361427496272  1.0000
  C   C18       1.0  0.8266680942863252  0.799715563701598  0.44185261308404633  1.0000
  C   C19       1.0  0.8262110325256082  0.7883861910329226  0.5786058484639174  1.0000
  C   C20       1.0  0.826166652116203  0.9019703458572098  0.6460918087937434  1.0000
  N   N4        1.0  0.8271803886720165  0.935744828621043  0.23266517849396462  1.0000
  C   C21       1.0  0.8594192974299389  0.8440540892188665  0.15335091939858095  1.0000
  O   O1        1.0  0.9068877230587035  0.770458980370355  0.20093210129100703  1.0000
  C   C22       1.0  0.8394020808062296  0.8381482556408925  0.0147327117075251  1.0000
  C   C23       1.0  0.7757772301422958  0.8890514358470358  0.9675781902729637  1.0000
  C   C24       1.0  0.7573229844587408  0.8823052418426567  0.8368233245692182  1.0000
  C   C25       1.0  0.8018525540332098  0.8244498407186329  0.7519350947286849  1.0000
  C   C26       1.0  0.8648715643397875  0.7727688094736807  0.7977057147456796  1.0000
  C   C27       1.0  0.8835884457637737  0.7791542622640487  0.9283594502275756  1.0000
  H   H10       1.0  0.8245873878366836  0.21553868601053439  0.8364167221580737  1.0000
  H   H11       1.0  0.8264517288800358  0.12950204271057666  0.38773158133350805  1.0000
  H   H12       1.0  0.8249521043467303  0.7129372426173987  0.3890265157602699  1.0000
  H   H13       1.0  0.8258301502904697  0.8939886365153971  0.7515551221934722  1.0000
  H   H14       1.0  0.8251203831397647  0.45660641432786997  0.6310523867275188  1.0000
  H   H15       1.0  0.8075433544780188  0.022190797730981645  0.18647579493906274  1.0000
  H   H16       1.0  0.73973343511157  0.9323687792013444  0.0316005331125695  1.0000
  H   H17       1.0  0.7082861421653242  0.9215449400873578  0.8014142624209026  1.0000
  H   H18       1.0  0.7874304382192654  0.8193016900646722  0.6507961425845723  1.0000
  H   H19       1.0  0.8992872684466513  0.7276822770438683  0.7318989701481056  1.0000
  H   H20       1.0  0.9327972644201372  0.7387248935597949  0.9615520384363864  1.0000
  C   C28       1.0  0.8260967981506638  0.4069118691298961  0.19711641062985488  1.0000
  C   C29       1.0  0.76077898322728  0.3493210927641335  0.19955421158547026  1.0000
  C   C30       1.0  0.7275381338987678  0.3216021605064503  0.08360890535162424  1.0000
  C   C31       1.0  0.7609727578308394  0.3494814176744854  0.964302429601267  1.0000
  C   C32       1.0  0.8262042333073673  0.4071511273824766  0.9598516294530192  1.0000
  C   C33       1.0  0.8583334018574814  0.4357901606854908  0.07679192110497368  1.0000
  C   C34       1.0  0.6589138196185041  0.25944953973570795  0.08851831758575136  1.0000
  O   O2        1.0  0.644844800444466  0.1804793041457915  0.18421069091227404  1.0000
  C   C35       1.0  0.6062528215357917  0.2868776291088708  0.984941783304042  1.0000
  C   C36       1.0  0.6009816602967853  0.4103350243828847  0.9170604781700744  1.0000
  C   C37       1.0  0.550627028565167  0.4353531238453747  0.8207317640020406  1.0000
  C   C38       1.0  0.5043313489472951  0.3384626405898936  0.7910627932928752  1.0000
  C   C39       1.0  0.5088790010304594  0.21521085125938624  0.8598531686554353  1.0000
  C   C40       1.0  0.5592274470938321  0.19006565884281448  0.9562541687270607  1.0000
  O   O3        1.0  0.45480862208896433  0.36844673763975794  0.6934572853615064  1.0000
  C   C41       1.0  0.4046310785584539  0.27952379647836345  0.6534176151830047  1.0000
  H   H21       1.0  0.9494688400151847  0.5150922732701433  0.3998257346396141  1.0000
  H   H22       1.0  0.7353018043657829  0.3270052443973619  0.2917568533599699  1.0000
  H   H23       1.0  0.7363742962053031  0.3248118495485332  0.8749273574861013  1.0000
  H   H24       1.0  0.908654906900541  0.4802739582694892  0.07409123727343038  1.0000
  H   H25       1.0  0.8513437511903311  0.42878970391959936  0.6307093574659994  1.0000
  H   H26       1.0  0.6352867893129489  0.48801220361575903  0.9393460916944547  1.0000
  H   H27       1.0  0.5473641085366702  0.5308645618978498  0.7691569151903748  1.0000
  H   H28       1.0  0.47378368610371224  0.1382326109942955  0.8396544928467932  1.0000
  H   H29       1.0  0.5618218901866616  0.0943834959839629  0.007707260711196759  1.0000
  H   H30       1.0  0.37232248360480685  0.3287560590499039  0.5749385254319681  1.0000
  H   H31       1.0  0.3710302255823088  0.24787147598033957  0.7365294610699538  1.0000
  H   H32       1.0  0.43026448066905587  0.19377877697591891  0.6150609031165417  1.0000
  Zn  Zn1       1.0  0.7507630720834323  0.40828924031060176  0.577526527738838  1.0000
  Zn  Zn2       1.0  0.901531361379319  0.4057732549159903  0.5794408149173012  1.0000
  C   C42       1.0  0.8261815603293007  0.4019323853614892  0.8156766547279378  1.0000
  C   C43       1.0  0.8261145197965282  0.4121317210106484  0.34129083682176886  1.0000
  C   C44       1.0  0.8261838892670355  0.644216341510933  0.5733846045631295  1.0000
  C   C45       1.0  0.8261121391742031  0.16984620547652732  0.5835829550731821  1.0000
  O   O4        1.0  0.8833362464957066  0.41292308203598194  0.3904035514988447  1.0000
  O   O5        1.0  0.8833894764567928  0.3992304698214484  0.7680164655679205  1.0000
  O   O6        1.0  0.8833905859975735  0.5948778418057747  0.5723639114416756  1.0000
  O   O7        1.0  0.8833350854956815  0.2172757201696427  0.5860560076005095  1.0000
  O   O8        1.0  0.7689592965172513  0.5967867759169436  0.570911334395547  1.0000
  O   O9        1.0  0.7689581872112423  0.40114096417728806  0.7665638197751037  1.0000
  O   O10       1.0  0.7689049570688218  0.4148335306463713  0.38894934429684014  1.0000
  O   O11       1.0  0.7689037960782225  0.21918615952203924  0.5846018977630025  1.0000
