data_image0
_chemical_formula_structural       NC9NC5H8C6SCNH5C8NH11Zn2C4O8
_chemical_formula_sum              "N4 C33 H24 S1 Zn2 O8"
_cell_length_a       17.807436237873137
_cell_length_b       10.302215558581764
_cell_length_c       9.275652972338536
_cell_angle_alpha    85.94620534348942
_cell_angle_beta     89.8368236096327
_cell_angle_gamma    88.40943486361951

_space_group_name_H-M_alt    "P 1"
_space_group_IT_number       1

loop_
  _space_group_symop_operation_xyz
  'x, y, z'

loop_
  _atom_site_type_symbol
  _atom_site_label
  _atom_site_symmetry_multiplicity
  _atom_site_fract_x
  _atom_site_fract_y
  _atom_site_fract_z
  _atom_site_occupancy
  N   N1        1.0  0.7013549693578328  0.37812508892895075  0.39886144748389807  1.0000
  C   C1        1.0  0.640712195617532  0.3428738643885867  0.3866229277364335  1.0000
  C   C2        1.0  0.5652792502262044  0.29902522301880174  0.3713995380213337  1.0000
  C   C3        1.0  0.5467133186861628  0.22695481163687714  0.25485865761707505  1.0000
  C   C4        1.0  0.47347143776891215  0.18426916134950933  0.23998601304928058  1.0000
  C   C5        1.0  0.4177465535911192  0.21327628401919885  0.34161818950260425  1.0000
  C   C6        1.0  0.3399096971607957  0.16802784468846  0.3259035198153455  1.0000
  C   C7        1.0  0.2778631271129357  0.24992899035511182  0.3547002278103805  1.0000
  C   C8        1.0  0.20447896155601344  0.2070404433804991  0.33984274268786563  1.0000
  C   C9        1.0  0.1413844251285911  0.29163456760693185  0.369043628064859  1.0000
  N   N2        1.0  0.09066940180284747  0.3596423979451422  0.3925203329621587  1.0000
  C   C10       1.0  0.19255765946737774  0.08199267607761929  0.2961603859677435  1.0000
  C   C11       1.0  0.2537468201831368  7.762790067289337e-05  0.26735436542973146  1.0000
  C   C12       1.0  0.3270105881442243  0.042570437481388446  0.2819870263869275  1.0000
  C   C13       1.0  0.43700494797904366  0.285842338972506  0.4584024298266196  1.0000
  C   C14       1.0  0.5102989802737253  0.3283366457085286  0.47310231028661787  1.0000
  H   H1        1.0  0.5887893146337908  0.20401507243125105  0.17526897422744356  1.0000
  H   H2        1.0  0.4601846934990835  0.13006864375178773  0.14795431760142908  1.0000
  H   H3        1.0  0.2865063375158522  0.34755355802397614  0.3867595118158993  1.0000
  H   H4        1.0  0.1360394988926708  0.04789758566265845  0.2843981512682474  1.0000
  H   H5        1.0  0.24440016099772502  0.9032652356640203  0.23396295771875364  1.0000
  H   H6        1.0  0.3735549978157656  0.976720456514435  0.260839324567929  1.0000
  H   H7        1.0  0.3956514041821343  0.3082514828323893  0.5394286881191267  1.0000
  H   H8        1.0  0.5241097448289593  0.38375073869907333  0.5639781486538173  1.0000
  C   C15       1.0  0.8959410016309313  0.9876146880303232  0.395652390450858  1.0000
  C   C16       1.0  0.9714077001849472  0.9802333675097981  0.4397776665303154  1.0000
  C   C17       1.0  0.008964975422549815  0.8595220553467101  0.4621920750064423  1.0000
  C   C18       1.0  0.9716034392034015  0.7450496009779352  0.43989652415296426  1.0000
  C   C19       1.0  0.89609056677893  0.7501425425705742  0.3957417461745669  1.0000
  C   C20       1.0  0.8586658163662264  0.8719257257351473  0.37391809531860976  1.0000
  S   S1        1.0  0.10537893522850238  0.851611381067923  0.5179249220186088  1.0000
  C   C21       1.0  0.08132517707695053  0.8410325343564135  0.7030190911097964  1.0000
  N   N3        1.0  0.0655329494239698  0.8340986769267428  0.8243645249979676  1.0000
  H   H9        1.0  0.8672248339362562  0.3177629929477719  0.37878960941996254  1.0000
  H   H10       1.0  0.001303997241579146  0.0678950391103972  0.4571758709278519  1.0000
  H   H11       1.0  0.0016339074750615324  0.652423654010201  0.45737627324835434  1.0000
  H   H12       1.0  0.8004628993399251  0.8767689549490306  0.3399071374784104  1.0000
  H   H13       1.0  0.7537804901732346  0.5525329064991491  0.3123664257779412  1.0000
  C   C22       1.0  0.8943429422595445  0.3664275467962852  0.972453292698812  1.0000
  C   C23       1.0  0.8456339094573491  0.4536690604019984  0.039404008859411414  1.0000
  C   C24       1.0  0.8028578442035229  0.5482052182916969  0.9574118294357005  1.0000
  C   C25       1.0  0.8077758387239775  0.5542972175215319  0.8065471117798992  1.0000
  C   C26       1.0  0.8548308642288536  0.46719202258478454  0.7382152652789684  1.0000
  C   C27       1.0  0.8976886738220271  0.3713297200585009  0.8189408716352293  1.0000
  C   C28       1.0  0.7501503448172204  0.6395330684508949  0.030824738907784692  1.0000
  C   C29       1.0  0.6728977818186738  0.5797631973685231  0.052862728475230755  1.0000
  N   N4        1.0  0.6219645877994695  0.6699234034279484  0.12191077363421643  1.0000
  H   H14       1.0  0.9493674324309282  0.17091277370585822  0.2681410767449963  1.0000
  H   H15       1.0  0.8420598958039516  0.45022645056140354  0.15628931719386596  1.0000
  H   H16       1.0  0.7744792969132926  0.6258118806062758  0.7415146596902882  1.0000
  H   H17       1.0  0.856188231584229  0.47270375845157636  0.6211739547209412  1.0000
  H   H18       1.0  0.0006854045740181116  0.24752310646301037  0.5467688284020622  1.0000
  H   H19       1.0  0.7736806677914388  0.6612296147156058  0.13715853216266516  1.0000
  H   H20       1.0  0.7441546681874096  0.7335549962580692  0.9646241860699791  1.0000
  H   H21       1.0  0.6494072007876155  0.5591079588352952  0.9461112591832638  1.0000
  H   H22       1.0  0.6781824367948444  0.48652200285235314  0.1209581277935796  1.0000
  H   H23       1.0  0.5688969622927086  0.6288424662379575  0.12717270323207552  1.0000
  H   H24       1.0  0.6395567539728545  0.6755867492858101  0.22874494774458706  1.0000
  Zn  Zn1       1.0  0.8137027359799749  0.37278796745387255  0.39703987389102535  1.0000
  Zn  Zn2       1.0  0.978321661739695  0.3649690046408298  0.39435375423428715  1.0000
  C   C30       1.0  0.8970535486583548  0.3652308552309705  0.6589360219593788  1.0000
  C   C31       1.0  0.8949726475753637  0.37252767049012325  0.13245771848809815  1.0000
  C   C32       1.0  0.8960357485783856  0.6059754919014693  0.38998153574968897  1.0000
  C   C33       1.0  0.895990391480098  0.1317814770391752  0.40141228227263914  1.0000
  O   O1        1.0  0.9576560057276611  0.3716020078323785  0.18513729636652787  1.0000
  O   O2        1.0  0.959312144303024  0.360221124163719  0.6042173264043469  1.0000
  O   O3        1.0  0.9584894216372117  0.5546255115856329  0.3870346897924475  1.0000
  O   O4        1.0  0.9584786717948782  0.1771976317405004  0.4023198258295546  1.0000
  O   O5        1.0  0.8335456697484017  0.5605593430237998  0.3890738032048182  1.0000
  O   O6        1.0  0.8343683924130602  0.3661565150519326  0.606256363150927  1.0000
  O   O7        1.0  0.832712247029783  0.3775373434388958  0.18717460026216282  1.0000
  O   O8        1.0  0.8335349135192053  0.18313295868657994  0.4043572377831228  1.0000
