data_image0
_chemical_formula_structural       NC9NC5H8C7NC2NH7C6OCH7Zn2C4O8
_chemical_formula_sum              "N4 C34 H22 O9 Zn2"
_cell_length_a       17.807436237873137
_cell_length_b       9.273995741505848
_cell_length_c       9.273891588657152
_cell_angle_alpha    86.22271932508039
_cell_angle_beta     89.08663702953788
_cell_angle_gamma    88.97465214434487

_space_group_name_H-M_alt    "P 1"
_space_group_IT_number       1

loop_
  _space_group_symop_operation_xyz
  'x, y, z'

loop_
  _atom_site_type_symbol
  _atom_site_label
  _atom_site_symmetry_multiplicity
  _atom_site_fract_x
  _atom_site_fract_y
  _atom_site_fract_z
  _atom_site_occupancy
  N   N1        1.0  0.7201536617826527  0.5259448903562813  0.4021885043277195  1.0000
  C   C1        1.0  0.6593941382466912  0.4867665854414251  0.38985801034313705  1.0000
  C   C2        1.0  0.5838159690956406  0.4380330884944558  0.3745202148030695  1.0000
  C   C3        1.0  0.5656377779982973  0.35768268554085925  0.25777947344398044  1.0000
  C   C4        1.0  0.49225488799908623  0.3102415944750152  0.2427954505712457  1.0000
  C   C5        1.0  0.43599935298962267  0.3427314588527903  0.3445151366526016  1.0000
  C   C6        1.0  0.3580126730231534  0.2924422081813227  0.3286824082325508  1.0000
  C   C7        1.0  0.29623487465702725  0.38346835394963863  0.3576928519214946  1.0000
  C   C8        1.0  0.22270844211433  0.3358019978787443  0.34272347017178245  1.0000
  C   C9        1.0  0.15989522936452957  0.4298196706091601  0.3721450489542002  1.0000
  N   N2        1.0  0.10940636254770658  0.5054033860907678  0.39579917625572864  1.0000
  C   C10       1.0  0.2103748261224895  0.1968228397672849  0.2987148157214785  1.0000
  C   C11       1.0  0.2712951998171973  0.10578123040146069  0.26969502263697676  1.0000
  C   C12       1.0  0.3447005225626495  0.15300752293934813  0.28443853640640526  1.0000
  C   C13       1.0  0.4548711605604742  0.4236329170120254  0.4615005403263359  1.0000
  C   C14       1.0  0.5283062960513799  0.47086105653544097  0.4763112861203562  1.0000
  H   H1        1.0  0.6081280613876137  0.33199083746093705  0.17812068600228967  1.0000
  H   H2        1.0  0.4792897731570314  0.24980207358203296  0.15061288310114815  1.0000
  H   H3        1.0  0.3052139648270821  0.49196352561622336  0.3900066120284968  1.0000
  H   H4        1.0  0.1537432321291291  0.158929670943724  0.2868636329377421  1.0000
  H   H5        1.0  0.2616263989025587  0.9981842831369203  0.23605104938624707  1.0000
  H   H6        1.0  0.39101510867973716  0.07982638253650087  0.26311924631113337  1.0000
  H   H7        1.0  0.4130904780521719  0.44873950791392875  0.5425947276463372  1.0000
  H   H8        1.0  0.5418102459955552  0.5326450201043462  0.5673409591346665  1.0000
  C   C15       1.0  0.9125403130855082  0.0922938465283092  0.39797766156170045  1.0000
  C   C16       1.0  0.9261018790091229  0.17363635335614225  0.26740143045446385  1.0000
  C   C17       1.0  0.9463687560784027  0.1063232133481955  0.14212157461837682  1.0000
  C   C18       1.0  0.9539147667333334  0.9554955302207854  0.14383511247678404  1.0000
  C   C19       1.0  0.9387794341877383  0.8729476855823405  0.27324311377890176  1.0000
  C   C20       1.0  0.917026791508675  0.9390430534034402  0.4000223591193868  1.0000
  C   C21       1.0  0.9763140379855002  0.886105606012687  0.0095216956150832  1.0000
  N   N3        1.0  0.9794258832170822  0.9590422417927922  0.8784936884586839  1.0000
  C   C22       1.0  0.0022151710179783017  0.8591328467680677  0.7874652652367242  1.0000
  C   C23       1.0  0.012712819663243112  0.7283559687211796  0.8638129975563356  1.0000
  N   N4        1.0  0.996455947847128  0.745472228031155  0.00344632324646277  1.0000
  H   H9        1.0  0.8510346057939808  0.362016115541554  0.6064362135832719  1.0000
  H   H10       1.0  0.9228470723295882  0.2906099782588336  0.2628059086347392  1.0000
  H   H11       1.0  0.9572503026452001  0.17306399503367653  0.044025769639482126  1.0000
  H   H12       1.0  0.9413170337200938  0.7562697227584062  0.27519898799988063  1.0000
  H   H13       1.0  0.917321836757804  0.6431630051452506  0.6397181954386658  1.0000
  H   H14       1.0  0.010854809964964794  0.8806599581641046  0.672402643511298  1.0000
  H   H15       1.0  0.0002962676815156899  0.6654902823127922  0.08763867724887442  1.0000
  C   C24       1.0  0.9159937763208651  0.5117851697612028  0.9756952751687074  1.0000
  C   C25       1.0  0.9778262238253529  0.5694353617181245  0.04340639332338813  1.0000
  C   C26       1.0  0.03545529382987245  0.6380762275775569  0.9628299942060313  1.0000
  C   C27       1.0  0.03145854780792477  0.6494173652000566  0.8114828221983137  1.0000
  C   C28       1.0  0.971199454856092  0.5908109227317311  0.7424014968159471  1.0000
  C   C29       1.0  0.9135733099253333  0.5195517311274915  0.8223047510804893  1.0000
  O   O1        1.0  0.09522712399901634  0.6940595428456859  0.037203402539661035  1.0000
  C   C30       1.0  0.15748005571496115  0.7666720031407743  0.9692950245455632  1.0000
  H   H16       1.0  0.736870314452232  0.4326616985078311  0.08943114738421865  1.0000
  H   H17       1.0  0.07501734253041525  0.7021885157664975  0.7459834369505305  1.0000
  H   H18       1.0  0.9706327798192942  0.5982734776484675  0.6253482117224074  1.0000
  H   H19       1.0  0.7940884505896607  0.4605055882285012  0.5486599024045069  1.0000
  H   H20       1.0  0.1378353004697095  0.865300343320271  0.9054659823222218  1.0000
  H   H21       1.0  0.18841852284039626  0.6934655413147801  0.8981955160448307  1.0000
  H   H22       1.0  0.19611059564794828  0.7991045756651998  0.053590694903714584  1.0000
  Zn  Zn1       1.0  0.832483537491532  0.5200132854062725  0.4003530096625598  1.0000
  Zn  Zn2       1.0  0.9970763724913733  0.5113233474184335  0.39764649316784423  1.0000
  C   C31       1.0  0.9139987346984457  0.5123402088720945  0.6622636082287824  1.0000
  C   C32       1.0  0.9155629818672022  0.5189981494851331  0.13573601092220033  1.0000
  C   C33       1.0  0.9161913072378672  0.7789369794830054  0.39389171385239297  1.0000
  C   C34       1.0  0.9133703437661019  0.25239965036040934  0.404107978891467  1.0000
  O   O2        1.0  0.9778804930861456  0.5181148153190842  0.18842001973787378  1.0000
  O   O3        1.0  0.9766033722489037  0.5066269897222957  0.6075249984370583  1.0000
  O   O4        1.0  0.978373055998797  0.7219073117729886  0.39081281241860855  1.0000
  O   O5        1.0  0.9761107535355191  0.30283450555578106  0.40513209862266364  1.0000
  O   O6        1.0  0.8534491002799591  0.7285021302358736  0.3928674051237637  1.0000
  O   O7        1.0  0.8516794259243184  0.5132235396659433  0.6095795184653585  1.0000
  O   O8        1.0  0.8529565515002142  0.5247112991197378  0.19047280654964238  1.0000
  O   O9        1.0  0.8511868115828942  0.30943098003599423  0.40718499348411497  1.0000
