data_image0
_chemical_formula_structural       NC10NC5H10C12ClH9C12BrH9Zn2C4O8
_chemical_formula_sum              "N2 C43 H28 Cl1 Br1 Zn2 O8"
_cell_length_a       19.4436361288709
_cell_length_b       10.299768534541528
_cell_length_c       10.299148005577397
_cell_angle_alpha    85.55407396339785
_cell_angle_beta     89.67790826124899
_cell_angle_gamma    89.43641405984484

_space_group_name_H-M_alt    "P 1"
_space_group_IT_number       1

loop_
  _space_group_symop_operation_xyz
  'x, y, z'

loop_
  _atom_site_type_symbol
  _atom_site_label
  _atom_site_symmetry_multiplicity
  _atom_site_fract_x
  _atom_site_fract_y
  _atom_site_fract_z
  _atom_site_occupancy
  N   N1        1.0  0.6482363901859864  0.4094919140737421  0.5620820077407465  1.0000
  C   C1        1.0  0.5893994281113215  0.4193890557165797  0.5764672370797119  1.0000
  C   C2        1.0  0.5160688537682849  0.4317321009845938  0.5944611217308744  1.0000
  C   C3        1.0  0.4738974025567453  0.39976594523862813  0.49978069680889464  1.0000
  C   C4        1.0  0.3979934663221097  0.410202354987091  0.5051095611691152  1.0000
  C   C5        1.0  0.3582299181451296  0.385420710887157  0.612186668521528  1.0000
  C   C6        1.0  0.2821124624011887  0.389341398474043  0.5992267673103528  1.0000
  C   C7        1.0  0.24154142105267504  0.44697180258954616  0.6930053100268609  1.0000
  C   C8        1.0  0.169880613922887  0.45061285857391353  0.6824610059188754  1.0000
  C   C9        1.0  0.1377959727886081  0.39622741437577574  0.5784246825584081  1.0000
  C   C10       1.0  0.0640059604223043  0.3999297621307523  0.5677250908756297  1.0000
  N   N2        1.0  0.0046837953822727015  0.4029062554029217  0.559123328535458  1.0000
  C   C11       1.0  0.1776419336674853  0.33788980958398573  0.485029362076458  1.0000
  C   C12       1.0  0.24931920840716554  0.33419461093412006  0.49532187241322845  1.0000
  C   C13       1.0  0.3863312445212461  0.3449187834403751  0.7432865381092462  1.0000
  C   C14       1.0  0.4449930406075567  0.3880248211935576  0.7905336722973251  1.0000
  C   C15       1.0  0.4892307235102067  0.48590505880772894  0.7161668415782023  1.0000
  H   H1        1.0  0.49600868548295074  0.3706782005067654  0.4094675552594016  1.0000
  H   H2        1.0  0.3733163919792779  0.43272637964677035  0.411947191045649  1.0000
  H   H3        1.0  0.26540373943134077  0.4902361085500644  0.7738601189740832  1.0000
  H   H4        1.0  0.1395295011851829  0.4959033877431685  0.7553880126074739  1.0000
  H   H5        1.0  0.15330770185100434  0.2948210508408535  0.4045090637064379  1.0000
  H   H6        1.0  0.2790042015528573  0.28666050940856325  0.4230911297884665  1.0000
  H   H7        1.0  0.35534298126986363  0.2806823192450687  0.8075338956637451  1.0000
  H   H8        1.0  0.4601187957125686  0.3539269069915669  0.8884718373060456  1.0000
  H   H9        1.0  0.45914152475686143  0.5766257930234093  0.6909178795939901  1.0000
  H   H10       1.0  0.5325081130593342  0.5114704479799193  0.7792564898155763  1.0000
  C   C16       1.0  0.8263985126636963  0.024834832643779503  0.5606010814027624  1.0000
  C   C17       1.0  0.8309620173436479  0.03433603700395516  0.42408769953519543  1.0000
  C   C18       1.0  0.8333405013073111  0.9220097829116397  0.35492212365287545  1.0000
  C   C19       1.0  0.8310933751782521  0.7990458903612085  0.4241020999221212  1.0000
  C   C20       1.0  0.8265282525016909  0.7875531868663059  0.5606154331669226  1.0000
  C   C21       1.0  0.8242068926958466  0.901004401539058  0.628100444109233  1.0000
  C   C22       1.0  0.838169223318312  0.9331149159781676  0.21050233835811036  1.0000
  C   C23       1.0  0.7990592461209061  0.02738839757742629  0.13635957273720933  1.0000
  C   C24       1.0  0.8036654562008889  0.0376439370413637  0.00043504309275022295  1.0000
  C   C25       1.0  0.8473156405634646  0.9541495948684574  0.9369618875563196  1.0000
  C   C26       1.0  0.8864147186227485  0.8601887785568233  0.009593450294823613  1.0000
  C   C27       1.0  0.881930645800767  0.8495387291413201  0.14553161012699967  1.0000
  Cl  Cl1       1.0  0.85301818130582  0.9672641533254525  0.7664213406042171  1.0000
  H   H11       1.0  0.8246243033651448  0.34866880884690055  0.6126164395798388  1.0000
  H   H12       1.0  0.8336267046983438  0.12930683204910842  0.3713304508037531  1.0000
  H   H13       1.0  0.8319632001895519  0.7122037224536061  0.3711461835956842  1.0000
  H   H14       1.0  0.8206856623445719  0.8929064838955628  0.7334142399051322  1.0000
  H   H15       1.0  0.8248161108178056  0.45571967634166716  0.6126380775192783  1.0000
  H   H16       1.0  0.7642723296470207  0.09200024500788297  0.18339403551368894  1.0000
  H   H17       1.0  0.7731419086254464  0.11032995222407416  0.9445739354852147  1.0000
  H   H18       1.0  0.9204350083054027  0.7955447254608584  0.9608757913950899  1.0000
  H   H19       1.0  0.9133273305863437  0.7771301081424705  0.19989109322372142  1.0000
  C   C28       1.0  0.8265571355903325  0.4062443392650505  0.17921930858471757  1.0000
  C   C29       1.0  0.761873070837725  0.4682187340340096  0.17432040504947777  1.0000
  C   C30       1.0  0.7289800143192993  0.499589601539462  0.05469909319865773  1.0000
  C   C31       1.0  0.7616435086600105  0.46815017098606354  0.939045274100764  1.0000
  C   C32       1.0  0.8263696106056821  0.4061437330009754  0.9419972164131316  1.0000
  C   C33       1.0  0.8584277319911292  0.3755706591466461  0.06251130109351166  1.0000
  C   C34       1.0  0.6605525723463628  0.5651529545834215  0.05056155668120343  1.0000
  C   C35       1.0  0.6461225820723662  0.6667364693061162  0.13076139577604096  1.0000
  C   C36       1.0  0.5816875831806309  0.728335408409194  0.12667257923331965  1.0000
  C   C37       1.0  0.5309502251919876  0.6893294503343792  0.04272825857027285  1.0000
  C   C38       1.0  0.5446895501918358  0.5885455551262402  0.9626817028235667  1.0000
  C   C39       1.0  0.6090660369154975  0.5267257335196449  0.9663784620745681  1.0000
  Br  Br1       1.0  0.44297252594383724  0.7736248702187327  0.03740993901051226  1.0000
  H   H20       1.0  0.8514514679612021  0.3824587413973294  0.5085750106548264  1.0000
  H   H21       1.0  0.7364970988119439  0.49063362856974524  0.2638709894301523  1.0000
  H   H22       1.0  0.7369470883969114  0.49370120461003597  0.8464342961222133  1.0000
  H   H23       1.0  0.9083211618355094  0.32777218168272926  0.06557389763865928  1.0000
  H   H24       1.0  0.9487289048607749  0.2898415147040682  0.7402183756094693  1.0000
  H   H25       1.0  0.6849365831258089  0.6996361757678897  0.19534748834925608  1.0000
  H   H26       1.0  0.5713145011663452  0.8065927336190165  0.1885647646766746  1.0000
  H   H27       1.0  0.5054690482544163  0.5578053271392369  0.8977920269383768  1.0000
  H   H28       1.0  0.6182881173840441  0.44780038854650983  0.9046969103788113  1.0000
  Zn  Zn1       1.0  0.7510994104675883  0.40758796292199007  0.5612357093018783  1.0000
  Zn  Zn2       1.0  0.9018207621856824  0.40479959759401174  0.5599803085156607  1.0000
  C   C40       1.0  0.8264026510852482  0.4009891563228652  0.7978158022083925  1.0000
  C   C41       1.0  0.8265191676878737  0.4114000123267431  0.32340032940429486  1.0000
  C   C42       1.0  0.8265014552150411  0.643383965990437  0.5554373429589154  1.0000
  C   C43       1.0  0.8264203118450039  0.16900364331826245  0.565778858294971  1.0000
  O   O1        1.0  0.8837043918353691  0.41206646752239373  0.371312378938494  1.0000
  O   O2        1.0  0.8836114453623677  0.3982054167006117  0.7489505586412617  1.0000
  O   O3        1.0  0.883690459558783  0.5939423050944435  0.5532282443774235  1.0000
  O   O4        1.0  0.8836253262334851  0.21632958938299351  0.5670345962511016  1.0000
  O   O5        1.0  0.7692947949859875  0.5960579720859553  0.5541814219880126  1.0000
  O   O6        1.0  0.7692157810688509  0.4003226439859801  0.749903667032227  1.0000
  O   O7        1.0  0.7693087279637569  0.4141836497574798  0.37226392584542145  1.0000
  O   O8        1.0  0.7692296623335434  0.21844676231659507  0.5679862405308351  1.0000
