data_image0
_chemical_formula_structural       NC12NC2H8C6NH7C6ClH5Zn2C4O8
_chemical_formula_sum              "N3 C30 H20 Cl1 Zn2 O8"
_cell_length_a       19.240039667572717
_cell_length_b       9.274771166103584
_cell_length_c       10.302974078461048
_cell_angle_alpha    85.4557754151483
_cell_angle_beta     89.99986526728996
_cell_angle_gamma    90.59704977044065

_space_group_name_H-M_alt    "P 1"
_space_group_IT_number       1

loop_
  _space_group_symop_operation_xyz
  'x, y, z'

loop_
  _atom_site_type_symbol
  _atom_site_label
  _atom_site_symmetry_multiplicity
  _atom_site_fract_x
  _atom_site_fract_y
  _atom_site_fract_z
  _atom_site_occupancy
  N   N1        1.0  0.6624087943482596  0.5786602464536896  0.5653646155754368  1.0000
  C   C1        1.0  0.6022604259996475  0.5786603397346688  0.5653645335143416  1.0000
  C   C2        1.0  0.5274423895130427  0.5786604700083249  0.565364396043865  1.0000
  C   C3        1.0  0.4906088654802177  0.50705611273741  0.6688582159453096  1.0000
  C   C4        1.0  0.417937498620313  0.506932953150729  0.6689449292095977  1.0000
  C   C5        1.0  0.3811101550924634  0.5786605728252561  0.565364168270996  1.0000
  C   C6        1.0  0.4186584909948373  0.6503884001882205  0.46178360147162617  1.0000
  C   C7        1.0  0.4913285593845588  0.6502649790249349  0.46187043762001045  1.0000
  C   C8        1.0  0.303905064214082  0.5786604854553121  0.5653640730287879  1.0000
  C   C9        1.0  0.2660852778214174  0.45285837507078225  0.6074247339856222  1.0000
  C   C10       1.0  0.1934151859915462  0.452977112887778  0.6073332464884387  1.0000
  C   C11       1.0  0.1575727765701033  0.5786603419790208  0.5653641341513158  1.0000
  C   C12       1.0  0.082754738780213  0.578660215639156  0.5653643829342316  1.0000
  N   N2        1.0  0.022606421700071603  0.5786601702930754  0.5653645913578282  1.0000
  C   C13       1.0  0.19467787842841186  0.7043436552945247  0.5233949688045378  1.0000
  C   C14       1.0  0.26734917220572796  0.7044625931782753  0.5233033184426239  1.0000
  H   H1        1.0  0.5180451576999962  0.4516184542691668  0.7496624905532367  1.0000
  H   H2        1.0  0.3905700694549131  0.4523817355149346  0.7508629039109673  1.0000
  H   H3        1.0  0.39183938952311054  0.7049396478724126  0.3798655758900309  1.0000
  H   H4        1.0  0.5193220380681005  0.7057025261259344  0.3810664388963443  1.0000
  H   H5        1.0  0.29268108179738095  0.35383085337825526  0.6387424377109305  1.0000
  H   H6        1.0  0.16520788830335117  0.35494832173151813  0.6396819557392734  1.0000
  H   H7        1.0  0.1674553525318982  0.802372419196905  0.4910462741434607  1.0000
  H   H8        1.0  0.2949398474887878  0.8034902028148038  0.491985569818167  1.0000
  C   C15       1.0  0.8403771236933861  0.155063671794742  0.5660722235894924  1.0000
  C   C16       1.0  0.8243836182635182  0.23837242939409387  0.44997415029844556  1.0000
  C   C17       1.0  0.814879358093771  0.17332304907562013  0.3331394839639412  1.0000
  C   C18       1.0  0.8214050407937209  0.023587438180598046  0.33155664649956584  1.0000
  C   C19       1.0  0.8361133152675349  0.9389592527091734  0.44605987188298696  1.0000
  C   C20       1.0  0.8446447205835802  0.002245710091147936  0.5646682215022278  1.0000
  N   N3        1.0  0.7993128759427285  0.2597313046467866  0.2157654254748993  1.0000
  H   H9        1.0  0.9185969991505883  0.23472396750652047  0.8501999201958511  1.0000
  H   H10       1.0  0.8208791838084707  0.3549651379261185  0.4494754528527054  1.0000
  H   H11       1.0  0.81442142676626  0.9721002195940647  0.24166415817973988  1.0000
  H   H12       1.0  0.8391763223427904  0.8227952371375583  0.4423417186226862  1.0000
  H   H13       1.0  0.8945119298896963  0.7051793845245762  0.7579756561753905  1.0000
  H   H14       1.0  0.7945241949393125  0.3718052064673394  0.21572325905895973  1.0000
  H   H15       1.0  0.7923946929953978  0.21226129370539115  0.12800799072516011  1.0000
  C   C21       1.0  0.8425109231724103  0.5786546920927639  0.18412771555163854  1.0000
  C   C22       1.0  0.8296663471402764  0.42883382238120404  0.19360968362753406  1.0000
  C   C23       1.0  0.8232932544642613  0.35449678750433367  0.08135758638350299  1.0000
  C   C24       1.0  0.8296663786356873  0.42883390384645054  0.9585017845214111  1.0000
  C   C25       1.0  0.8425109210244852  0.5786546176331318  0.9466127347484599  1.0000
  C   C26       1.0  0.8488706100879252  0.6528347698947914  0.06007957456869107  1.0000
  Cl  Cl1       1.0  0.8072473298302743  0.16733492897679247  0.09470635985505593  1.0000
  H   H16       1.0  0.84734965402767  0.6350896278074412  0.5078589609244668  1.0000
  H   H17       1.0  0.8245577687589297  0.3692465638745883  0.2879061134701364  1.0000
  H   H18       1.0  0.8245578172232753  0.3692465432914826  0.872705147430334  1.0000
  H   H19       1.0  0.858776701470391  0.7683811214402951  0.05183847116061458  1.0000
  H   H20       1.0  0.8473495217092373  0.6350896150424525  0.6148313304642663  1.0000
  Zn  Zn1       1.0  0.7663540386768078  0.5786563733618042  0.5653721009126611  1.0000
  Zn  Zn2       1.0  0.9186611368701794  0.5786522769256622  0.5653677209074364  1.0000
  C   C27       1.0  0.8424804138652676  0.5729081177722246  0.8024962362205894  1.0000
  C   C28       1.0  0.842536434038837  0.5844023525286295  0.3282437099595035  1.0000
  C   C29       1.0  0.8438344680424469  0.8421102409373449  0.5597601292845431  1.0000
  C   C30       1.0  0.841182319159743  0.3151984962955441  0.5709798889849276  1.0000
  O   O1        1.0  0.9003447140271804  0.5863234722113633  0.37660870243899214  1.0000
  O   O2        1.0  0.9002696917776327  0.5709828007855582  0.754127547499848  1.0000
  O   O3        1.0  0.9013623284817579  0.7883669197877913  0.5581164212874343  1.0000
  O   O4        1.0  0.8992520254029412  0.3689393635294286  0.5726197312934103  1.0000
  O   O5        1.0  0.7857630981691162  0.7883692867610057  0.5581200905213501  1.0000
  O   O6        1.0  0.7846704701919761  0.5709869008297057  0.7541311446390495  1.0000
  O   O7        1.0  0.7847454922345606  0.586327521988594  0.3766107387784088  1.0000
  O   O8        1.0  0.7836528035555055  0.36894340298932904  0.5726218649854858  1.0000
