data_image0
_chemical_formula_structural       NC9NC5H8C12H10C8H6Zn2C4O8
_chemical_formula_sum              "N2 C38 H24 Zn2 O8"
_cell_length_a       17.807436237873137
_cell_length_b       10.299137764757564
_cell_length_c       9.275144076552241
_cell_angle_alpha    85.93860642642608
_cell_angle_beta     89.86257050345318
_cell_angle_gamma    88.40860916225229

_space_group_name_H-M_alt    "P 1"
_space_group_IT_number       1

loop_
  _space_group_symop_operation_xyz
  'x, y, z'

loop_
  _atom_site_type_symbol
  _atom_site_label
  _atom_site_symmetry_multiplicity
  _atom_site_fract_x
  _atom_site_fract_y
  _atom_site_fract_z
  _atom_site_occupancy
  N   N1        1.0  0.7009762123940653  0.3781220025020986  0.3981005352568465  1.0000
  C   C1        1.0  0.6403309200527758  0.34285555165704085  0.3858798283447997  1.0000
  C   C2        1.0  0.5648948417948392  0.29898797043554404  0.37067859583477625  1.0000
  C   C3        1.0  0.5463027593817273  0.22686009684145605  0.25417129354125256  1.0000
  C   C4        1.0  0.47305781652294815  0.18415599378541847  0.23932021686093316  1.0000
  C   C5        1.0  0.4173560161071104  0.21320199013053576  0.34094057686528223  1.0000
  C   C6        1.0  0.3395159255827439  0.16793400479929188  0.3252487715521599  1.0000
  C   C7        1.0  0.2774752902742729  0.24987063082651043  0.3540041052296192  1.0000
  C   C8        1.0  0.2040880679229387  0.2069635680741495  0.3391682931767501  1.0000
  C   C9        1.0  0.1409995368407768  0.2915941831424853  0.3683264269742479  1.0000
  N   N2        1.0  0.09028934167551307  0.3596313499444268  0.39176876259338367  1.0000
  C   C10       1.0  0.1921577699596756  0.08186171083723394  0.29554911615817736  1.0000
  C   C11       1.0  0.2533409939133448  0.9999111750040218  0.26678447682363626  1.0000
  C   C12       1.0  0.3266077703308433  0.042422304272606404  0.2813956619686524  1.0000
  C   C13       1.0  0.4366406131381383  0.2858257418924033  0.45769099083626646  1.0000
  C   C14       1.0  0.5099376693022721  0.3283383881540767  0.47236939679726286  1.0000
  H   H1        1.0  0.5883606799292282  0.20388984075666075  0.17459097930324385  1.0000
  H   H2        1.0  0.459750398742715  0.12991099946158213  0.1473136376795845  1.0000
  H   H3        1.0  0.2861250548141221  0.34753683845941286  0.38601400154664756  1.0000
  H   H4        1.0  0.1356371905740043  0.04775191504463616  0.2838041124107933  1.0000
  H   H5        1.0  0.2439874682205037  0.9030570291982033  0.23344199631417387  1.0000
  H   H6        1.0  0.37314786855186044  0.9765443734547209  0.2602812880653582  1.0000
  H   H7        1.0  0.3953054787656733  0.3082656397869261  0.5387081983862414  1.0000
  H   H8        1.0  0.5237688321459983  0.3837970282645478  0.5632194567244067  1.0000
  C   C15       1.0  0.8955647193284354  0.9874810112880876  0.3950929148859672  1.0000
  C   C16       1.0  0.894896772996166  0.9964124483759276  0.2433281857698617  1.0000
  C   C17       1.0  0.8946317020539929  0.8838048383868878  0.16622078577297894  1.0000
  C   C18       1.0  0.895043560548304  0.7611477969145376  0.24292942573406529  1.0000
  C   C19       1.0  0.8957080532305679  0.7502621118719845  0.39478879925645716  1.0000
  C   C20       1.0  0.8959658011189848  0.863940493969416  0.4699356133770501  1.0000
  C   C21       1.0  0.8939241911807798  0.8942983722191936  0.005668710990696548  1.0000
  C   C22       1.0  0.9389060480695923  0.8093602100524105  0.9273947467622478  1.0000
  C   C23       1.0  0.9381467105682337  0.8194925201877346  0.7762698064744455  1.0000
  C   C24       1.0  0.8925868225984634  0.9141707731250529  0.7017072984146364  1.0000
  C   C25       1.0  0.8476912532760706  0.9989788104509452  0.7781184203135489  1.0000
  C   C26       1.0  0.8482617101804625  0.989350374244715  0.9292474065250356  1.0000
  H   H9        1.0  0.8957833182524217  0.31152314786037416  0.4534722890444127  1.0000
  H   H10       1.0  0.8956206424623783  0.09113661535640329  0.18471311472551832  1.0000
  H   H11       1.0  0.8938069200528561  0.6740678012012249  0.18407267656885096  1.0000
  H   H12       1.0  0.8964789469271839  0.8563360397677314  0.5869952648995684  1.0000
  H   H13       1.0  0.8964845819770715  0.5224470732516429  0.6814231697648115  1.0000
  H   H14       1.0  0.9753483298368758  0.7363180090471785  0.9829863696255514  1.0000
  H   H15       1.0  0.9730718586090218  0.7540557657285095  0.7169293291449472  1.0000
  H   H16       1.0  0.8920722085545998  0.921818948800689  0.5847250593089353  1.0000
  H   H17       1.0  0.8122503498238881  0.07208079811234391  0.7202145235060411  1.0000
  H   H18       1.0  0.8123153387399414  0.055028697313087585  0.9863098722986634  1.0000
  C   C27       1.0  0.8938664304784689  0.36629788843576305  0.9716851858521216  1.0000
  C   C28       1.0  0.8449028541569029  0.45332600156005776  0.03842173443126162  1.0000
  C   C29       1.0  0.8019682910769216  0.5465028425263656  0.9561487915484665  1.0000
  C   C30       1.0  0.8072207623113339  0.5545530117623136  0.8056296032595944  1.0000
  C   C31       1.0  0.8546247714072697  0.46750372586416467  0.7371626241836227  1.0000
  C   C32       1.0  0.8974063491733859  0.37144527096079294  0.8181965555205597  1.0000
  C   C33       1.0  0.7631957954292998  0.6513519228242293  0.7210030674547836  1.0000
  C   C34       1.0  0.7263381986122192  0.7323952829431479  0.650134638278801  1.0000
  H   H19       1.0  0.05000232430098971  0.188387552873567  0.08781730906573128  1.0000
  H   H20       1.0  0.841144842124576  0.4513211832472199  0.1551538415760887  1.0000
  H   H21       1.0  0.7651756077245633  0.6131901596322601  0.01015987778435856  1.0000
  H   H22       1.0  0.8567794541304734  0.47279825907325246  0.6200408344735657  1.0000
  H   H23       1.0  0.0009034196739861052  0.24761206557456727  0.5467461874550228  1.0000
  H   H24       1.0  0.6939848795425235  0.8035340739417829  0.5879253933360227  1.0000
  Zn  Zn1       1.0  0.8133236048921538  0.3727825847526851  0.3962816595441152  1.0000
  Zn  Zn2       1.0  0.9779419785416481  0.3649602528319316  0.39359949177951914  1.0000
  C   C35       1.0  0.896734578938519  0.3652983170145125  0.658189834411915  1.0000
  C   C36       1.0  0.8945328030223326  0.37244607474468694  0.13169142843556592  1.0000
  C   C37       1.0  0.8956530803206574  0.6060455070793547  0.389102757988784  1.0000
  C   C38       1.0  0.895614245495561  0.13169732740479456  0.40077858323938487  1.0000
  O   O1        1.0  0.9572282575547904  0.3715352618998258  0.18437311869239692  1.0000
  O   O2        1.0  0.9589806590769789  0.3602711786141476  0.6034720263670263  1.0000
  O   O3        1.0  0.9581064993829015  0.5546776283856016  0.38618232150274867  1.0000
  O   O4        1.0  0.9581023606255916  0.17712882343133995  0.40166271639862994  1.0000
  O   O5        1.0  0.8331631666320072  0.5606140168240226  0.38821843583271387  1.0000
  O   O6        1.0  0.8340373262945149  0.3662091269983639  0.6055080632240148  1.0000
  O   O7        1.0  0.8322849175672168  0.3774731544854064  0.18640742267319976  1.0000
  O   O8        1.0  0.8331590210850912  0.18306670738469788  0.4036971284451889  1.0000
