data_image0
_chemical_formula_structural       NC12NC2H8C7N4H5C12H9Zn2C4O8
_chemical_formula_sum              "N6 C37 H22 Zn2 O8"
_cell_length_a       17.80743265337812
_cell_length_b       9.274187458527196
_cell_length_c       10.299141136925906
_cell_angle_alpha    85.89992364093918
_cell_angle_beta     91.556080336852
_cell_angle_gamma    89.89930755814213

_space_group_name_H-M_alt    "P 1"
_space_group_IT_number       1

loop_
  _space_group_symop_operation_xyz
  'x, y, z'

loop_
  _atom_site_type_symbol
  _atom_site_label
  _atom_site_symmetry_multiplicity
  _atom_site_fract_x
  _atom_site_fract_y
  _atom_site_fract_z
  _atom_site_occupancy
  N   N1        1.0  0.7138324818468799  0.5618179404001533  0.6103669611644585  1.0000
  C   C1        1.0  0.6631383350824545  0.5946482649663027  0.5418558626951799  1.0000
  C   C2        1.0  0.6000697934433772  0.6354868045627545  0.4566366907871788  1.0000
  C   C3        1.0  0.6120258914425803  0.6954867359243533  0.33035980174269536  1.0000
  C   C4        1.0  0.5508580588404648  0.7346555965483987  0.24752700514445378  1.0000
  C   C5        1.0  0.47758093431491455  0.7141171642847308  0.29031286522999084  1.0000
  C   C6        1.0  0.464647602113453  0.6539852240516021  0.41705715354342504  1.0000
  C   C7        1.0  0.5266727625853035  0.6148199801204957  0.4998734586008561  1.0000
  C   C8        1.0  0.38679759696739496  0.6322092747038504  0.4626962499006481  1.0000
  C   C9        1.0  0.3681712397805311  0.6623482351519564  0.5899240367577189  1.0000
  C   C10       1.0  0.2948643775643783  0.6418559367876718  0.6327507315008134  1.0000
  C   C11       1.0  0.2392398817281128  0.5909421915854238  0.5491860076703158  1.0000
  C   C12       1.0  0.16379409598289313  0.5698358492066944  0.5934101267943503  1.0000
  N   N2        1.0  0.10314102670302581  0.5528677694561734  0.6289632760566128  1.0000
  C   C13       1.0  0.2571740642716522  0.5606155798306323  0.4225001265715271  1.0000
  C   C14       1.0  0.330428082474264  0.5811243654486622  0.3794176260491342  1.0000
  H   H1        1.0  0.6685544372791593  0.7119511099996687  0.29601691514621287  1.0000
  H   H2        1.0  0.560234677949409  0.7814117092947759  0.1500151891146699  1.0000
  H   H3        1.0  0.43106803038107044  0.7470316063582619  0.22491038631050775  1.0000
  H   H4        1.0  0.5179878754482999  0.5665262275038271  0.5972518446657871  1.0000
  H   H5        1.0  0.41004067562535845  0.7035974514055026  0.6557418200659616  1.0000
  H   H6        1.0  0.28154830883044735  0.6660753349843327  0.730906773166548  1.0000
  H   H7        1.0  0.2145939036434997  0.5207729102421215  0.357103533734936  1.0000
  H   H8        1.0  0.343208487423906  0.5552004379587964  0.2815549863016182  1.0000
  C   C15       1.0  0.9066651657844145  0.13402796387746463  0.6172088188242014  1.0000
  C   C16       1.0  0.9455348297259797  0.21483988111797683  0.5202207926523454  1.0000
  C   C17       1.0  0.9893442016410604  0.14679508431431598  0.432355757857892  1.0000
  C   C18       1.0  0.9956481197872443  0.995772211974549  0.4390427269733645  1.0000
  C   C19       1.0  0.9557782956537691  0.9137858024153227  0.5341130434526039  1.0000
  C   C20       1.0  0.9103154590428385  0.9806464673092017  0.6221328516875939  1.0000
  C   C21       1.0  0.0431788695745694  0.9256837353900312  0.3454069097493175  1.0000
  N   N3        1.0  0.07927041431058755  0.9976194184174417  0.24745404728200013  1.0000
  N   N4        1.0  0.11507911697890759  0.896740532518683  0.18809898362552824  1.0000
  N   N5        1.0  0.10191999629177384  0.767834985864  0.24660413362902767  1.0000
  N   N6        1.0  0.057232595695330124  0.7830724201791934  0.3449940353299151  1.0000
  H   H9        1.0  0.8083048863182793  0.40573540110018436  0.7428298032879377  1.0000
  H   H10       1.0  0.9435603554287687  0.3318966548380988  0.5141607951245976  1.0000
  H   H11       1.0  0.019095030288398318  0.2130296811245596  0.35984163639662703  1.0000
  H   H12       1.0  0.9581515483619517  0.7970565996106419  0.538136874372445  1.0000
  H   H13       1.0  0.8624010977117906  0.6851367520913078  0.8192529598193322  1.0000
  C   C22       1.0  0.9084054726199563  0.557462226106361  0.23827449150521657  1.0000
  C   C23       1.0  0.9869376967887249  0.5711832192115462  0.24029762213234737  1.0000
  C   C24       1.0  0.026844031874047717  0.5780118877645173  0.12419317676018668  1.0000
  C   C25       1.0  0.9871566279343138  0.5709343966757785  0.0050410077444378275  1.0000
  C   C26       1.0  0.9085752033351466  0.5572122438063909  0.0010672470136348063  1.0000
  C   C27       1.0  0.8696834752173191  0.5505582755253629  0.11815350166840566  1.0000
  C   C28       1.0  0.10992323129633963  0.5925291338327787  0.1273782195880155  1.0000
  C   C29       1.0  0.1542896091279129  0.512674442414759  0.046831869143075786  1.0000
  C   C30       1.0  0.2324827590800567  0.5265182616149446  0.050068482320646306  1.0000
  C   C31       1.0  0.26721120684508093  0.6200093052202389  0.13341439846045186  1.0000
  C   C32       1.0  0.2238167720806188  0.6998512147878109  0.21376254896208735  1.0000
  C   C33       1.0  0.14560549566694436  0.6863692645328711  0.21099691395626707  1.0000
  H   H14       1.0  0.8781932191006063  0.5522577083817442  0.5649671289035856  1.0000
  H   H15       1.0  0.01735234551650832  0.5745994692498262  0.33252592723671603  1.0000
  H   H16       1.0  0.017529380428752846  0.5781305194238766  0.9151102876235824  1.0000
  H   H17       1.0  0.8091095942883916  0.5399789696750614  0.11587711428563428  1.0000
  H   H18       1.0  0.7602120005296583  0.5322279841507846  0.7862146712782603  1.0000
  H   H19       1.0  0.12860794402270215  0.4382249783799704  0.9826728069985479  1.0000
  H   H20       1.0  0.26618765409282386  0.46439929475176545  0.9881057450703923  1.0000
  H   H21       1.0  0.32774485640041306  0.6305851095861292  0.13573763210891054  1.0000
  H   H22       1.0  0.2507812489673653  0.772569548037819  0.27805355309997926  1.0000
  Zn  Zn1       1.0  0.8261785067754714  0.5592312633079739  0.6157409210267459  1.0000
  Zn  Zn2       1.0  0.9907949509384593  0.5554426844669724  0.62359984161779  1.0000
  C   C34       1.0  0.9085166647790204  0.5515168191166884  0.8568495766363338  1.0000
  C   C35       1.0  0.9084585984119552  0.5631589060929437  0.38249140988170593  1.0000
  C   C36       1.0  0.909620481035528  0.8206193695920276  0.6160264056916223  1.0000
  C   C37       1.0  0.9073547185313499  0.2940546249709788  0.623314637315224  1.0000
  O   O1        1.0  0.9709474834515621  0.5636267291070112  0.4338743079565932  1.0000
  O   O2        1.0  0.9709678471218716  0.5481724650666187  0.8114310372491063  1.0000
  O   O3        1.0  0.971858350869046  0.7654761967806334  0.616964591360057  1.0000
  O   O4        1.0  0.9700569235547423  0.3463230090297277  0.6283406538422248  1.0000
  O   O5        1.0  0.8469164779836802  0.7683509400396469  0.6110001061136245  1.0000
  O   O6        1.0  0.8460259816850956  0.5510489402666852  0.8054664928251806  1.0000
  O   O7        1.0  0.8460056175007482  0.5665031545840896  0.42790820172982524  1.0000
  O   O8        1.0  0.8451150575780657  0.3491994241645021  0.6223746449301881  1.0000
