data_image0
_chemical_formula_structural       NC10NC3NCH9C12NH10C12NCOCH13Zn2C4O8
_chemical_formula_sum              "N5 C44 H32 O9 Zn2"
_cell_length_a       19.437513618241372
_cell_length_b       10.299770795358612
_cell_length_c       10.299158637457996
_cell_angle_alpha    85.57628442395506
_cell_angle_beta     90.32911859646087
_cell_angle_gamma    89.53989505547142

_space_group_name_H-M_alt    "P 1"
_space_group_IT_number       1

loop_
  _space_group_symop_operation_xyz
  'x, y, z'

loop_
  _atom_site_type_symbol
  _atom_site_label
  _atom_site_symmetry_multiplicity
  _atom_site_fract_x
  _atom_site_fract_y
  _atom_site_fract_z
  _atom_site_occupancy
  N   N1        1.0  0.6483161310179614  0.40996356457901584  0.575618777039252  1.0000
  C   C1        1.0  0.5893859764448118  0.4269725136581057  0.5726427808901862  1.0000
  C   C2        1.0  0.5159494758509854  0.4482236454191937  0.568948789795388  1.0000
  C   C3        1.0  0.47417191374338324  0.34703143246665147  0.5572891329953005  1.0000
  C   C4        1.0  0.3982845347752945  0.35709393713236753  0.5500677437179522  1.0000
  C   C5        1.0  0.3587151689183513  0.4379609215662692  0.6158110774399019  1.0000
  C   C6        1.0  0.2825326005632414  0.42935027514800445  0.6073668738039291  1.0000
  C   C7        1.0  0.24937620775167904  0.30800844542629435  0.6120099817544409  1.0000
  C   C8        1.0  0.17764138076412753  0.30163465757895613  0.604841840090053  1.0000
  C   C9        1.0  0.1380921970938  0.4161301261829584  0.5933928243641937  1.0000
  C   C10       1.0  0.06424286216831201  0.40941811330048256  0.5860565888755727  1.0000
  N   N2        1.0  0.004873094957385002  0.40402224513517604  0.5801587139541411  1.0000
  C   C11       1.0  0.17053184991876544  0.5371616050417403  0.5894949986757863  1.0000
  C   C12       1.0  0.24225111597467805  0.5437893989752831  0.5967251630050416  1.0000
  C   C13       1.0  0.3874032463047523  0.5302705751370914  0.705732097780712  1.0000
  N   N3        1.0  0.44440145000670633  0.5934764645060795  0.6853278773336409  1.0000
  C   C14       1.0  0.4882541936673569  0.5841832238776885  0.5722192512308741  1.0000
  H   H1        1.0  0.496541333418406  0.2519729832539581  0.5451675679457515  1.0000
  H   H2        1.0  0.3735656144791225  0.28756604532557284  0.49174889074835093  1.0000
  H   H3        1.0  0.27881004663874015  0.2181009154550324  0.6230306941259325  1.0000
  H   H4        1.0  0.1530314473864459  0.20741074592530828  0.6087287998784641  1.0000
  H   H5        1.0  0.1404123410607638  0.6264148913848855  0.5807864536226215  1.0000
  H   H6        1.0  0.2663795991209205  0.6384261003986709  0.5928227443687619  1.0000
  H   H7        1.0  0.3573933704672702  0.5506798020154244  0.7900995783865592  1.0000
  H   H8        1.0  0.5310179779746518  0.6544963674880744  0.577982889076033  1.0000
  H   H9        1.0  0.458602695938307  0.6122659235956173  0.48157291926891044  1.0000
  C   C15       1.0  0.826535558472433  0.025625337196474744  0.5779276050751609  1.0000
  C   C16       1.0  0.8065890083030568  0.035086992010475264  0.4462618962255316  1.0000
  C   C17       1.0  0.7965450451715855  0.9227440654835897  0.37951155156173244  1.0000
  C   C18       1.0  0.8067149476154585  0.7998032560493014  0.4461949462469761  1.0000
  C   C19       1.0  0.8266602526460168  0.7883503303626324  0.57786118979541  1.0000
  C   C20       1.0  0.8364591986633775  0.9018177338120631  0.6429900850044066  1.0000
  C   C21       1.0  0.7754430540109285  0.9338073472664863  0.24021687745287124  1.0000
  C   C22       1.0  0.7253538730961182  0.025804075409163522  0.19439148362286485  1.0000
  C   C23       1.0  0.7055221793688583  0.03608711898219918  0.06328665108711107  1.0000
  C   C24       1.0  0.7354043067923877  0.9547984051842574  0.9759222731093044  1.0000
  C   C25       1.0  0.7853285427676863  0.8630021955289905  0.020854998903142352  1.0000
  C   C26       1.0  0.8052153554149144  0.8524621972383377  0.15193055993887006  1.0000
  N   N4        1.0  0.7150897390772832  0.9654485055027715  0.8418267565652213  1.0000
  H   H10       1.0  0.8341068546908857  0.34947276058141785  0.6281151042384236  1.0000
  H   H11       1.0  0.7997294558593309  0.13008863177165964  0.3948217934930096  1.0000
  H   H12       1.0  0.7981282319641901  0.7128997578657934  0.39567296459578555  1.0000
  H   H13       1.0  0.8518465356158574  0.8937504683045556  0.7445643414215124  1.0000
  H   H14       1.0  0.8342902529977445  0.45653329035000856  0.6280178146884694  1.0000
  H   H15       1.0  0.7008688045823793  0.08864633108122202  0.2602836194390423  1.0000
  H   H16       1.0  0.666738909528002  0.10720302082462306  0.02988092792211105  1.0000
  H   H17       1.0  0.8445262994925935  0.7818472705922316  0.1839034447239829  1.0000
  H   H18       1.0  0.73707260194634  0.9052637474088963  0.7759663730851516  1.0000
  H   H19       1.0  0.677916985656055  0.03359719377616476  0.8074183615691002  1.0000
  C   C27       1.0  0.8266623882632855  0.4068487870859505  0.1965221624522946  1.0000
  C   C28       1.0  0.8282832684599178  0.5435248962423866  0.1852170770632331  1.0000
  C   C29       1.0  0.8290511019328416  0.6129623311399284  0.06232691033517068  1.0000
  C   C30       1.0  0.8281516223399347  0.5438869592669329  0.9499038901911899  1.0000
  C   C31       1.0  0.8265334291749733  0.40712689653442835  0.959266711117992  1.0000
  C   C32       1.0  0.8258017837799692  0.33944866571341503  0.08296382778938338  1.0000
  C   C33       1.0  0.8307666187756607  0.7575488694445198  0.051341066282710075  1.0000
  C   C34       1.0  0.8730053034288202  0.8246788708991228  0.13444022209346107  1.0000
  C   C35       1.0  0.8746253022792784  0.9607423355165003  0.12397117757589715  1.0000
  C   C36       1.0  0.8344750525225587  0.03239666080824888  0.029304071405749754  1.0000
  C   C37       1.0  0.7914170970272244  0.9656406986695127  0.947977531240973  1.0000
  C   C38       1.0  0.7898253487988778  0.8296046727262024  0.9581859461245092  1.0000
  N   N5        1.0  0.8342352115263343  0.17244648576517685  0.018053161650246174  1.0000
  C   C39       1.0  0.8931938606788697  0.2504518541858052  0.042028399464705934  1.0000
  O   O1        1.0  0.9525042691084393  0.20005093711870758  0.05130412361105097  1.0000
  C   C40       1.0  0.8851470391429891  0.3944009399124697  0.046515687076670316  1.0000
  H   H20       1.0  0.8260604828504161  0.35427508827874477  0.5283466298224981  1.0000
  H   H21       1.0  0.8279911499218415  0.5963469562716837  0.2721595067167111  1.0000
  H   H22       1.0  0.8296518505125966  0.5968755080891519  0.8549466604759939  1.0000
  H   H23       1.0  0.8245539162010975  0.2340271502545186  0.09096883712378401  1.0000
  H   H24       1.0  0.8238968463205081  0.1489770952681655  0.7696516490261942  1.0000
  H   H25       1.0  0.9051972268830845  0.771915462447211  0.20704730907814353  1.0000
  H   H26       1.0  0.906380887423673  0.009552714222395233  0.19140263600679752  1.0000
  H   H27       1.0  0.7592449060215816  0.0192787847288627  0.8759399081163366  1.0000
  H   H28       1.0  0.7558157896990237  0.7807850724719506  0.8944100343227906  1.0000
  H   H29       1.0  0.7896447322058385  0.22064445354566684  0.982534437815215  1.0000
  H   H30       1.0  0.8367733114091245  0.4169216586409492  0.09731562095310609  1.0000
  H   H31       1.0  0.8833049152135872  0.4410989281861668  0.9457692784454372  1.0000
  H   H32       1.0  0.9290467769111177  0.4344370285481305  0.09972578250155807  1.0000
  Zn  Zn1       1.0  0.7512107724251459  0.4082455416619515  0.5769364140886482  1.0000
  Zn  Zn2       1.0  0.901978456211576  0.40572960243347134  0.5788517477991888  1.0000
  C   C41       1.0  0.8265554224184166  0.401900674396884  0.8150920644772757  1.0000
  C   C42       1.0  0.8266354528430726  0.41207608088446784  0.34069624565093304  1.0000
  C   C43       1.0  0.8266340205393201  0.6441772363224691  0.5726985203890445  1.0000
  C   C44       1.0  0.8265568030088944  0.1697979595459158  0.583089858460599  1.0000
  O   O2        1.0  0.8838419624082552  0.41286995688973116  0.3898092446732098  1.0000
  O   O3        1.0  0.8837780962234316  0.3991962788769494  0.7674323856594296  1.0000
  O   O4        1.0  0.8838407936787683  0.5948376800004773  0.571697873917594  1.0000
  O   O5        1.0  0.8837792135241033  0.21722856587940914  0.5855436583851419  1.0000
  O   O6        1.0  0.7694099636630091  0.5967465790759923  0.5702445028422545  1.0000
  O   O7        1.0  0.769347266471337  0.401106738225409  0.7659789452022152  1.0000
  O   O8        1.0  0.769411132958515  0.4147803704123638  0.38835424280613684  1.0000
  O   O9        1.0  0.7693483840535683  0.2191389701488142  0.5840887538875326  1.0000
