data_image0
_chemical_formula_structural       NC12NC2H8C6SCOC6H10C7OC4NC3H9Zn2C4O8
_chemical_formula_sum              "N3 C45 H27 S1 O10 Zn2"
_cell_length_a       19.240039667572717
_cell_length_b       10.302038109246572
_cell_length_c       10.299375074045738
_cell_angle_alpha    85.54623755187913
_cell_angle_beta     89.99323599274587
_cell_angle_gamma    90.01678309981642

_space_group_name_H-M_alt    "P 1"
_space_group_IT_number       1

loop_
  _space_group_symop_operation_xyz
  'x, y, z'

loop_
  _atom_site_type_symbol
  _atom_site_label
  _atom_site_symmetry_multiplicity
  _atom_site_fract_x
  _atom_site_fract_y
  _atom_site_fract_z
  _atom_site_occupancy
  N   N1        1.0  0.6547905910489235  0.4214834991981821  0.5676096851507353  1.0000
  C   C1        1.0  0.5946422222499936  0.4214835831907797  0.5676096032233242  1.0000
  C   C2        1.0  0.5198241851359056  0.42148370050107337  0.5676094659308939  1.0000
  C   C3        1.0  0.4833338221967989  0.35699417344687334  0.6710159924579568  1.0000
  C   C4        1.0  0.4106630512364955  0.3568832854546995  0.6711025210337893  1.0000
  C   C5        1.0  0.37349195022748977  0.4214837931313462  0.5676092382534159  1.0000
  C   C6        1.0  0.4106965276227115  0.48608448767535295  0.46411615005250595  1.0000
  C   C7        1.0  0.48336719318145643  0.48597336419288617  0.46420280109698986  1.0000
  C   C8        1.0  0.29628685978156394  0.42148371452543576  0.5676091428208769  1.0000
  C   C9        1.0  0.2590786433542852  0.3082338607009427  0.6094635534659403  1.0000
  C   C10       1.0  0.1864079775084275  0.3083407704516963  0.6093722410420022  1.0000
  C   C11       1.0  0.1499545728342603  0.4214835853599823  0.5676092037131544  1.0000
  C   C12       1.0  0.0751365356457446  0.42148347154893545  0.5676094523670878  1.0000
  N   N2        1.0  0.014988218774061198  0.4214834306552495  0.5676096607894652  1.0000
  C   C13       1.0  0.18644867903194087  0.5346264760980943  0.5258461135033337  1.0000
  C   C14       1.0  0.25911939782662513  0.5347335659892076  0.5257546385063567  1.0000
  H   H1        1.0  0.51103575524315  0.3070647193081759  0.7517529388205597  1.0000
  H   H2        1.0  0.3835568661343726  0.3077512987152722  0.7529551543226136  1.0000
  H   H3        1.0  0.38361618194416414  0.5352165014802572  0.38226346591726906  1.0000
  H   H4        1.0  0.5110950315650216  0.5359027179872393  0.38346613052636047  1.0000
  H   H5        1.0  0.2861559673341657  0.21908775484427576  0.640618225624074  1.0000
  H   H6        1.0  0.15867725997987586  0.22009323453299576  0.6415600725713857  1.0000
  H   H7        1.0  0.15874957310793497  0.6228739874802027  0.4936582965210981  1.0000
  H   H8        1.0  0.2862285526792012  0.6238797510208014  0.494599921587394  1.0000
  C   C15       1.0  0.8348269174531321  0.04020505376684701  0.5675694951824207  1.0000
  C   C16       1.0  0.7754157905369701  0.04500465394114306  0.48804658415799107  1.0000
  C   C17       1.0  0.7461822364893413  0.9304344079355074  0.44799534586830636  1.0000
  C   C18       1.0  0.77563934258335  0.8098720759646986  0.4879925756934606  1.0000
  C   C19       1.0  0.834958587391476  0.8027519167027387  0.5676610734027494  1.0000
  C   C20       1.0  0.864282235303739  0.9185717720783567  0.6069513892112712  1.0000
  S   S1        1.0  0.6707702936107024  0.9380081057174309  0.3453819509501703  1.0000
  C   C21       1.0  0.7218773872026107  0.9465578611367269  0.19895380034767207  1.0000
  O   O1        1.0  0.7386386160993665  0.841307622500329  0.15260179799485818  1.0000
  C   C22       1.0  0.7448032922452267  0.07274876440597922  0.13345348316039907  1.0000
  C   C23       1.0  0.7939488440071523  0.0751263431530571  0.03194266530021328  1.0000
  C   C24       1.0  0.8162900229818978  0.1934858182693151  0.9702169660098199  1.0000
  C   C25       1.0  0.7898617043618535  0.3107081975777093  0.008719860946192702  1.0000
  C   C26       1.0  0.7409252571342123  0.30980371282531194  0.1088775777018709  1.0000
  C   C27       1.0  0.7183523959603251  0.19174775452946854  0.170923463104391  1.0000
  H   H9        1.0  0.9467294300358514  0.2384623332909448  0.7176296301333758  1.0000
  H   H10       1.0  0.7517716845964109  0.13753854026435985  0.4567694718970729  1.0000
  H   H11       1.0  0.7522191768724534  0.722132613256515  0.45622691175576113  1.0000
  H   H12       1.0  0.910084328008342  0.9139513052854505  0.6682549246503431  1.0000
  H   H13       1.0  0.8576329805435223  0.47273043047434554  0.5976289101990366  1.0000
  H   H14       1.0  0.8154505853521287  0.9855736785178917  0.00064376782857889  1.0000
  H   H15       1.0  0.8542077345260464  0.19426869152264364  0.8925160824905777  1.0000
  H   H16       1.0  0.8072371559994623  0.40223074441113765  0.9608435541043937  1.0000
  H   H17       1.0  0.7203345120993689  0.4007399315675642  0.13841574683668023  1.0000
  H   H18       1.0  0.6800276181763424  0.19435301843324446  0.24749196100829088  1.0000
  C   C28       1.0  0.8349163908246936  0.4216208008099411  0.18622852679223678  1.0000
  C   C29       1.0  0.8884312012686103  0.5147094227873148  0.17779619023346527  1.0000
  C   C30       1.0  0.9148828241174618  0.5627407150788282  0.056285851575278656  1.0000
  C   C31       1.0  0.888318630242243  0.5144717440890094  0.9425708455077522  1.0000
  C   C32       1.0  0.8348690674966378  0.42133618466103834  0.9490020486971016  1.0000
  C   C33       1.0  0.8083526528524541  0.3757008763859022  0.07130894907660346  1.0000
  C   C34       1.0  0.9718896566230408  0.6600362567002468  0.04731997475525108  1.0000
  O   O2        1.0  0.016303986393940924  0.6553523545417812  0.9576844690848745  1.0000
  C   C35       1.0  0.9785008841816896  0.7626571666300597  0.13995879352985252  1.0000
  C   C36       1.0  0.04460193031897708  0.8092070246176626  0.1717209287508321  1.0000
  C   C37       1.0  0.05135381190198629  0.9071953603022255  0.257949425340005  1.0000
  C   C38       1.0  0.11923445437222811  0.9535359399550134  0.2907426441210732  1.0000
  N   N3        1.0  0.1738028425879434  0.9907829295565682  0.3171009355224723  1.0000
  C   C39       1.0  0.9920113016683213  0.9600337825535652  0.31214920931715584  1.0000
  C   C40       1.0  0.9261421382362502  0.9154950929343344  0.27988636225654173  1.0000
  C   C41       1.0  0.9192520757701843  0.8177766771381934  0.19393345687686026  1.0000
  H   H19       1.0  0.7346583326865859  0.24448837964454168  0.4095760454643642  1.0000
  H   H20       1.0  0.9101356892718215  0.5489025389498638  0.26598354188790774  1.0000
  H   H21       1.0  0.9090127121827792  0.5506989205366487  0.8488300308626032  1.0000
  H   H22       1.0  0.7670968750760451  0.303935681513547  0.07700584554030865  1.0000
  H   H23       1.0  0.814736810906612  0.3847582027522414  0.6240775469307436  1.0000
  H   H24       1.0  0.09080023473889297  0.7684966517305717  0.1303353704778203  1.0000
  H   H25       1.0  0.9966608122862421  0.035893601921535456  0.37883750909634606  1.0000
  H   H26       1.0  0.8802902701609916  0.9571839292817996  0.3211232192704583  1.0000
  H   H27       1.0  0.8676226234136104  0.7863906617065053  0.16862638202183144  1.0000
  Zn  Zn1       1.0  0.7587358538220635  0.4214800102442038  0.5676171664803584  1.0000
  Zn  Zn2       1.0  0.9110429722862892  0.42147632468751484  0.5676127775836222  1.0000
  C   C42       1.0  0.8348755864289427  0.4162175109314736  0.8048208710573062  1.0000
  C   C43       1.0  0.834904903143327  0.4267404621431692  0.3304092006278425  1.0000
  C   C44       1.0  0.8349304230417708  0.6586162498150494  0.5624683273553013  1.0000
  C   C45       1.0  0.8348500142851245  0.18434016330269262  0.5727618133859271  1.0000
  O   O3        1.0  0.8927008044965724  0.4284516042087907  0.3787958856302902  1.0000
  O   O4        1.0  0.8926772636972999  0.4145025922631027  0.7564304810026785  1.0000
  O   O5        1.0  0.8927207657035388  0.6102426389769562  0.5607290874633923  1.0000
  O   O6        1.0  0.8926572505258735  0.23271156682055127  0.5744971817929692  1.0000
  O   O7        1.0  0.777121523607535  0.610244768113841  0.5607327622656777  1.0000
  O   O8        1.0  0.7770780218717269  0.4145062813595623  0.7564340867435504  1.0000
  O   O9        1.0  0.7771015628062432  0.4284552486427149  0.37879792989204675  1.0000
  O   O10       1.0  0.7770580088250607  0.23271520193153505  0.5744993234260001  1.0000
