data_image0
_chemical_formula_structural       NC9NC5H8C12ClH9C12OCH12Zn2C4O8
_chemical_formula_sum              "N2 C43 H29 Cl1 O9 Zn2"
_cell_length_a       17.807436237873137
_cell_length_b       10.299768534541528
_cell_length_c       10.299794127170989
_cell_angle_alpha    85.578860457747
_cell_angle_beta     89.38603407784058
_cell_angle_gamma    88.408414792471

_space_group_name_H-M_alt    "P 1"
_space_group_IT_number       1

loop_
  _space_group_symop_operation_xyz
  'x, y, z'

loop_
  _atom_site_type_symbol
  _atom_site_label
  _atom_site_symmetry_multiplicity
  _atom_site_fract_x
  _atom_site_fract_y
  _atom_site_fract_z
  _atom_site_occupancy
  N   N1        1.0  0.7077654964857422  0.38730344639838615  0.5572173793005  1.0000
  C   C1        1.0  0.6471721742329286  0.3521111679044818  0.5461933066055065  1.0000
  C   C2        1.0  0.571800741122087  0.30833584902948763  0.5324805571549962  1.0000
  C   C3        1.0  0.553703108683244  0.23689129085173663  0.4274809924481895  1.0000
  C   C4        1.0  0.4805213213037196  0.19427731110994673  0.41408416971773243  1.0000
  C   C5        1.0  0.42438837996683115  0.2227303577680488  0.5056544546483448  1.0000
  C   C6        1.0  0.3466150207533353  0.17755761088697583  0.49149917434559925  1.0000
  C   C7        1.0  0.2844521037884575  0.2593198035740081  0.517438432807825  1.0000
  C   C8        1.0  0.2111279729481335  0.2165027937627142  0.5040552869407611  1.0000
  C   C9        1.0  0.1479154413827766  0.3009563926261898  0.5303584810122666  1.0000
  N   N2        1.0  0.0971055532614569  0.3688512435970462  0.551505522484516  1.0000
  C   C10       1.0  0.1993831680381438  0.09166560892583894  0.4647075293094854  1.0000
  C   C11       1.0  0.2606887131720926  0.009889561745311868  0.438759881264321  1.0000
  C   C12       1.0  0.3338933523659298  0.05231197867288562  0.4519404904347031  1.0000
  C   C13       1.0  0.44317749394887296  0.29466933711983  0.6108732483785464  1.0000
  C   C14       1.0  0.5164121277619002  0.33709288040619245  0.6241144236762124  1.0000
  H   H1        1.0  0.5960986625275965  0.21438540208896842  0.35577094710040913  1.0000
  H   H2        1.0  0.4676043635015871  0.1405716906326779  0.3311663491878303  1.0000
  H   H3        1.0  0.29296572195175075  0.356791253140178  0.5463159597718632  1.0000
  H   H4        1.0  0.1429125365817501  0.05762711774092509  0.4541124981662241  1.0000
  H   H5        1.0  0.2514769829900153  0.9132378419944749  0.4086820098478181  1.0000
  H   H6        1.0  0.3805232610623214  0.9865626454410443  0.43289174223268906  1.0000
  H   H7        1.0  0.4014986336317353  0.3166365683517287  0.6838777262214781  1.0000
  H   H8        1.0  0.5298577314316084  0.39201875565375843  0.7059906845334206  1.0000
  C   C15       1.0  0.9023682573090355  0.9967151526946189  0.5543603376909898  1.0000
  C   C16       1.0  0.9073252922630195  0.00600651257877805  0.41782526590259494  1.0000
  C   C17       1.0  0.9099092841194287  0.8935717305556872  0.3486481881243344  1.0000
  C   C18       1.0  0.9074687748103767  0.770711999464728  0.41783865014911226  1.0000
  C   C19       1.0  0.9025099725399832  0.7594291942843784  0.5543736858182325  1.0000
  C   C20       1.0  0.899988036610047  0.8729863221290953  0.6218699243434533  1.0000
  C   C21       1.0  0.915154412742556  0.904454835215646  0.20420544963800283  1.0000
  C   C22       1.0  0.872420350294256  0.9999987265285577  0.13037216563536072  1.0000
  C   C23       1.0  0.8774241505601205  0.010043249867422763  0.9944255576800318  1.0000
  C   C24       1.0  0.9250895776787929  0.9250689611029675  0.9306215201060182  1.0000
  C   C25       1.0  0.9678114297487092  0.8298374565264939  0.002943835552392524  1.0000
  C   C26       1.0  0.9629410404160185  0.8193943633684565  0.13890312885842926  1.0000
  Cl  Cl1       1.0  0.9312838819087353  0.9379213181587691  0.7600538649153803  1.0000
  H   H9        1.0  0.9004408364753592  0.32063026341392376  0.6063842336921863  1.0000
  H   H10       1.0  0.9102252151943943  0.10086621639933324  0.365052674308211  1.0000
  H   H11       1.0  0.9084081639642162  0.6838184026199724  0.3648812756052984  1.0000
  H   H12       1.0  0.8961631514895849  0.8650503130284112  0.7272004582950315  1.0000
  H   H13       1.0  0.9006503484409454  0.4276747552882453  0.6064043878124639  1.0000
  H   H14       1.0  0.8344327774890138  0.06578850730982275  0.17767067682168294  1.0000
  H   H15       1.0  0.8440725753342754  0.08372161216961937  0.9388057872307449  1.0000
  H   H16       1.0  0.004961290628415548  0.764040274869959  0.9539682174823235  1.0000
  H   H17       1.0  0.9972460231019346  0.7459636933439575  0.19301467918914206  1.0000
  C   C27       1.0  0.9024644293899987  0.3779575200930824  0.17301522849511786  1.0000
  C   C28       1.0  0.8288396004536696  0.33232474351152985  0.17690099243147261  1.0000
  C   C29       1.0  0.7915126774563004  0.3093058207868644  0.06172337677605633  1.0000
  C   C30       1.0  0.8287885683198628  0.332553626293393  0.9415968540549216  1.0000
  C   C31       1.0  0.9024138179929277  0.3781868903570539  0.9357188221215017  1.0000
  C   C32       1.0  0.938840240171074  0.40063039371992093  0.05195372881448801  1.0000
  C   C33       1.0  0.7136239285899593  0.26102173125937767  0.06688896011007062  1.0000
  C   C34       1.0  0.6598517061075254  0.3122367145060996  0.9765304935914689  1.0000
  C   C35       1.0  0.5866483650727811  0.2667766044916784  0.9816546964980062  1.0000
  C   C36       1.0  0.5661532413591338  0.16981515187950194  0.07664008538675571  1.0000
  C   C37       1.0  0.619184051894033  0.117230725960332  0.16787198263776615  1.0000
  C   C38       1.0  0.6924896330068316  0.16332552920278418  0.16229491706138321  1.0000
  O   O1        1.0  0.6014827173313473  0.019497905338479615  0.26495132837651947  1.0000
  C   C39       1.0  0.5294605889679117  0.9636384045753864  0.28204393575654096  1.0000
  H   H18       1.0  0.9305286284129037  0.3952867816803587  0.4989919965265843  1.0000
  H   H19       1.0  0.799974505322719  0.31626412761287814  0.26960112901738054  1.0000
  H   H20       1.0  0.8006231193898395  0.31329427378928537  0.8526781104391402  1.0000
  H   H21       1.0  0.99563901696947  0.4358333073757239  0.04818762926565334  1.0000
  H   H22       1.0  0.9304530808124346  0.3956371272432548  0.6060218889892366  1.0000
  H   H23       1.0  0.6741533106469534  0.3886241335198845  0.9030035387005683  1.0000
  H   H24       1.0  0.545580941899539  0.3071178840265884  0.9119200797487017  1.0000
  H   H25       1.0  0.5090733237813199  0.1364865740776806  0.07830520128642204  1.0000
  H   H26       1.0  0.7332255729726898  0.1212499602168362  0.23186059509787338  1.0000
  H   H27       1.0  0.5139673304855241  0.9159174963096194  0.19340971564202736  1.0000
  H   H28       1.0  0.5313771733769409  0.8890725982481489  0.3656861989616911  1.0000
  H   H29       1.0  0.48668628477311876  0.039923114474629706  0.3029500241386247  1.0000
  Zn  Zn1       1.0  0.820120624327705  0.38197507629432015  0.5555765712008602  1.0000
  Zn  Zn2       1.0  0.9847504045467002  0.3741690309284666  0.5531570065312426  1.0000
  C   C40       1.0  0.9024207258348456  0.37297001293319143  0.7915514600732612  1.0000
  C   C41       1.0  0.9024521010876184  0.3831756476761703  0.3171822187267783  1.0000
  C   C42       1.0  0.9024796557318253  0.6152586678350138  0.5491963170384462  1.0000
  C   C43       1.0  0.9023931147195153  0.14088543518439667  0.559537431795346  1.0000
  O   O2        1.0  0.9649241061618768  0.3819588797872489  0.3646477653482971  1.0000
  O   O3        1.0  0.964898914515787  0.36826119319178563  0.7422491460059495  1.0000
  O   O4        1.0  0.9649456588549198  0.5639123865232534  0.5465456657043231  1.0000
  O   O5        1.0  0.9648773056539423  0.18630769838022987  0.5603511491054214  1.0000
  O   O6        1.0  0.8399936670403992  0.5698364115077892  0.5483824294455293  1.0000
  O   O7        1.0  0.839946922992326  0.374186778431504  0.7440858405322519  1.0000
  O   O8        1.0  0.8399721147836315  0.3878844192999451  0.36648289854243044  1.0000
  O   O9        1.0  0.8399253142644352  0.1922332286337094  0.5621863796629056  1.0000
