data_image0
_chemical_formula_structural       NC12NC2H8C6NO2H5C10H6Zn2C4O8
_chemical_formula_sum              "N3 C34 H19 O10 Zn2"
_cell_length_a       17.80743265337812
_cell_length_b       9.273423624067512
_cell_length_c       10.302835742178797
_cell_angle_alpha    85.49668529840078
_cell_angle_beta     91.5341157365678
_cell_angle_gamma    90.04087344610896

_space_group_name_H-M_alt    "P 1"
_space_group_IT_number       1

loop_
  _space_group_symop_operation_xyz
  'x, y, z'

loop_
  _atom_site_type_symbol
  _atom_site_label
  _atom_site_symmetry_multiplicity
  _atom_site_fract_x
  _atom_site_fract_y
  _atom_site_fract_z
  _atom_site_occupancy
  N   N1        1.0  0.7159922928892152  0.56234158357402  0.6006600809218376  1.0000
  C   C1        1.0  0.66535227264345  0.5951700243036002  0.5319603506566395  1.0000
  C   C2        1.0  0.602351059650391  0.6360062217444633  0.44650653305803933  1.0000
  C   C3        1.0  0.6144063150534125  0.6960023600559873  0.319885323655388  1.0000
  C   C4        1.0  0.5533033021238568  0.7351686141862628  0.23682790535666975  1.0000
  C   C5        1.0  0.47999233288984927  0.7146313360906511  0.27973180134634656  1.0000
  C   C6        1.0  0.46695958303189766  0.6545032594353688  0.40682109322977095  1.0000
  C   C7        1.0  0.5289199317798517  0.6153406188566763  0.48986200271505353  1.0000
  C   C8        1.0  0.3890736327970832  0.6327286240782231  0.4525852296568576  1.0000
  C   C9        1.0  0.3704547510517427  0.6629282184695966  0.5795652874024457  1.0000
  C   C10       1.0  0.2971140897441126  0.6424371165998615  0.6225096992100083  1.0000
  C   C11       1.0  0.24144779883312056  0.5914640311353951  0.5393119478100241  1.0000
  C   C12       1.0  0.1659671758765693  0.5703589585430822  0.5836572665839879  1.0000
  N   N2        1.0  0.10528609983693302  0.5533918995930729  0.6193078522401672  1.0000
  C   C13       1.0  0.25937416318496853  0.5610768455093289  0.41287481505502877  1.0000
  C   C14       1.0  0.3326620568197304  0.58158436106393  0.36967458956515387  1.0000
  H   H1        1.0  0.6709620018733147  0.7124657944271957  0.2854478323834706  1.0000
  H   H2        1.0  0.5627569935328898  0.7819220636841124  0.13904742121407465  1.0000
  H   H3        1.0  0.43353296495820853  0.7475449667594742  0.21413891936133167  1.0000
  H   H4        1.0  0.5201561793642945  0.5670485214181245  0.587519202371606  1.0000
  H   H5        1.0  0.4123584667996452  0.7042248927574557  0.6450864966471976  1.0000
  H   H6        1.0  0.283804934792582  0.6667039003754208  0.7204682692542909  1.0000
  H   H7        1.0  0.21676129635103522  0.5211877381344205  0.3477653984539941  1.0000
  H   H8        1.0  0.34543346241839834  0.5556120752710376  0.27202049499699266  1.0000
  C   C15       1.0  0.9083163870824588  0.13428557051435153  0.6103072918916357  1.0000
  C   C16       1.0  0.897420990116137  0.21841268526275126  0.4916183461438151  1.0000
  C   C17       1.0  0.8934768582160064  0.15446248004627106  0.37253927519501806  1.0000
  C   C18       1.0  0.9006770240553057  0.003844953536400243  0.3729350143341872  1.0000
  C   C19       1.0  0.9102461647560293  0.9186532029742976  0.4898804939547566  1.0000
  C   C20       1.0  0.9129691338564327  0.9814367234530452  0.6096721673141972  1.0000
  N   N3        1.0  0.882943703586124  0.24249686557001815  0.2519547204934387  1.0000
  O   O1        1.0  0.8757358445581691  0.39027036495870177  0.2516820126788839  1.0000
  O   O2        1.0  0.8799554446172653  0.18624951848810922  0.14572879018008456  1.0000
  H   H9        1.0  0.888267489690263  0.3959373945910623  0.8224214331015706  1.0000
  H   H10       1.0  0.893763266324648  0.33496642914337493  0.4917897926347508  1.0000
  H   H11       1.0  0.8981475854281973  0.9514555429611048  0.2826579220594394  1.0000
  H   H12       1.0  0.9137345283692576  0.8023427474269461  0.4867779627993687  1.0000
  H   H13       1.0  0.879492542173449  0.8512499050000722  0.9226486901768853  1.0000
  C   C21       1.0  0.910642738366548  0.5578610851338621  0.2287421271578256  1.0000
  C   C22       1.0  0.8748010378679754  0.6933111039391722  0.21640999927844629  1.0000
  C   C23       1.0  0.8569693189334597  0.7606998725573333  0.09317110030312103  1.0000
  C   C24       1.0  0.874801228585305  0.6933111659632949  0.9811074551595969  1.0000
  C   C25       1.0  0.9106427746524016  0.5578611751808047  0.9912373228006516  1.0000
  C   C26       1.0  0.9283768229974232  0.4908418447861054  0.11554668835761395  1.0000
  C   C27       1.0  0.8202280917009177  0.8995491507534122  0.0816583576333727  1.0000
  C   C28       1.0  0.7894675475039862  0.015796220102719086  0.07201956766436202  1.0000
  C   C29       1.0  0.7534472643678674  0.15192039535022328  0.060732721422997786  1.0000
  C   C30       1.0  0.7226913413972517  0.26814963067289677  0.051095539539297574  1.0000
  H   H14       1.0  0.9242153699186377  0.5065687336822371  0.5607343232761022  1.0000
  H   H15       1.0  0.8606621708474984  0.7467435951198504  0.30239779060875804  1.0000
  H   H16       1.0  0.8606623908707774  0.7467437479428412  0.8862589233489194  1.0000
  H   H17       1.0  0.9560174029574869  0.386384356458066  0.12420792959287152  1.0000
  H   H18       1.0  0.9242151557639271  0.5065684506322898  0.6677509598927975  1.0000
  H   H19       1.0  0.695685070715926  0.3702085882245183  0.04263331246145108  1.0000
  Zn  Zn1       1.0  0.8283340585534785  0.5597550470423829  0.6060489123483674  1.0000
  Zn  Zn2       1.0  0.9929442670577782  0.5559666701194669  0.6139296193162491  1.0000
  C   C31       1.0  0.9106095378036785  0.5521148525383863  0.8471136495962799  1.0000
  C   C32       1.0  0.9106705953417551  0.5636086432462697  0.37286509418686564  1.0000
  C   C33       1.0  0.9120857995620497  0.8213071718141431  0.604618519410528  1.0000
  C   C34       1.0  0.9091942678953628  0.29441459225707245  0.6153602921993289  1.0000
  O   O3        1.0  0.9731486260893584  0.5640936140950321  0.42422477044280793  1.0000
  O   O4        1.0  0.9730668405134162  0.5487535030981485  0.8017348746704906  1.0000
  O   O5        1.0  0.9742580984450838  0.7661297246954512  0.6059182999113202  1.0000
  O   O6        1.0  0.971957312044043  0.34671740410895535  0.6200412451613959  1.0000
  O   O7        1.0  0.8493209573938365  0.7690043143472518  0.599937283807092  1.0000
  O   O8        1.0  0.8481297089768131  0.5516298257577474  0.7957537880434227  1.0000
  O   O9        1.0  0.8482114943265548  0.5669698864881616  0.41824212295177926  1.0000
  O   O10       1.0  0.8470201802215106  0.3495936661852168  0.6140586950148215  1.0000
