data_image0
_chemical_formula_structural       NC8NH4C10H6C6BrH3Zn2C4O8
_chemical_formula_sum              "N2 C28 H13 Br1 Zn2 O8"
_cell_length_a       13.859017981522156
_cell_length_b       9.275150299802176
_cell_length_c       9.275428193871798
_cell_angle_alpha    85.84136921910526
_cell_angle_beta     89.94092098538006
_cell_angle_gamma    89.4839203727508

_space_group_name_H-M_alt    "P 1"
_space_group_IT_number       1

loop_
  _space_group_symop_operation_xyz
  'x, y, z'

loop_
  _atom_site_type_symbol
  _atom_site_label
  _atom_site_symmetry_multiplicity
  _atom_site_fract_x
  _atom_site_fract_y
  _atom_site_fract_z
  _atom_site_occupancy
  N   N1        1.0  0.9002760087118266  0.5621110485325462  0.4016834201848156  1.0000
  C   C1        1.0  0.8280100148507927  0.5544270471844577  0.34043383305733266  1.0000
  C   C2        1.0  0.7381153794732588  0.5448695270569667  0.26424731439675764  1.0000
  C   C3        1.0  0.7381477951510542  0.5262314567604702  0.11567986790998264  1.0000
  C   C4        1.0  0.6508221595294412  0.5169507252477814  0.04169296215530105  1.0000
  C   C5        1.0  0.5632825090050572  0.526233177292893  0.11567960994347626  1.0000
  C   C6        1.0  0.5628851368556237  0.5448704988349911  0.26424712516121796  1.0000
  C   C7        1.0  0.6503928998855819  0.5541874698538507  0.33851971696161254  1.0000
  C   C8        1.0  0.4727701928173457  0.5544279488169511  0.3404335876033078  1.0000
  N   N2        1.0  0.4003270912271952  0.562111361171237  0.40168332484059865  1.0000
  H   H1        1.0  0.805527828151908  0.5188972509353358  0.05722014673493204  1.0000
  H   H2        1.0  0.6509881054519175  0.5025538769277842  0.9269310009149208  1.0000
  H   H3        1.0  0.49607154006925713  0.5189003456817933  0.05721970938275134  1.0000
  H   H4        1.0  0.6502266100170628  0.5686133624864586  0.45351499815301755  1.0000
  C   C9        1.0  0.1528502493368067  0.13843126133101236  0.4040956222666945  1.0000
  C   C10       1.0  0.20367461561040878  0.21932762694498065  0.29508311934316467  1.0000
  C   C11       1.0  0.24622818893942378  0.151963631933278  0.1805307455307219  1.0000
  C   C12       1.0  0.2383894348175133  0.0027217377789352567  0.17351538793549603  1.0000
  C   C13       1.0  0.18967210141252447  0.9203746672862915  0.28188030079343007  1.0000
  C   C14       1.0  0.1477621190872227  0.985780175691464  0.39928364265645633  1.0000
  C   C15       1.0  0.2970661505242602  0.23657571010356063  0.06902578292213968  1.0000
  C   C16       1.0  0.3396303685281486  0.3074409985616758  0.9756728884698473  1.0000
  C   C17       1.0  0.38947109282543413  0.39042923623090037  0.866360720386826  1.0000
  C   C18       1.0  0.4320271039767536  0.4612892322546427  0.7730257210282359  1.0000
  H   H5        1.0  0.1069242794483514  0.4031808541777799  0.6329086750589914  1.0000
  H   H6        1.0  0.20830896037427715  0.3357995940936396  0.2973091141451749  1.0000
  H   H7        1.0  0.2708008367089254  0.949636870205691  0.08487591888188928  1.0000
  H   H8        1.0  0.1867259242308439  0.8043086518861335  0.27565936835138594  1.0000
  H   H9        1.0  0.08480667918285034  0.8589388724041138  0.7416373403485683  1.0000
  H   H10       1.0  0.4693948316614255  0.5235103264598883  0.6910698826117017  1.0000
  C   C19       1.0  0.15062459840633596  0.5576168992932685  0.9785614297650063  1.0000
  C   C20       1.0  0.239491842995816  0.5603029665278036  0.05159147953921762  1.0000
  C   C21       1.0  0.32597448834222  0.5761553736543941  0.9749646992900955  1.0000
  C   C22       1.0  0.32495173127598587  0.5897421348447565  0.8243302989683823  1.0000
  C   C23       1.0  0.2377831997658358  0.5849746100768494  0.7498049224723489  1.0000
  C   C24       1.0  0.14998782564908875  0.5665945774015069  0.8248178359075538  1.0000
  Br  Br1       1.0  0.4455762016506777  0.5816711580965053  0.07649727964009134  1.0000
  H   H11       1.0  0.9180686695448311  0.6291077657150542  0.07672084863141326  1.0000
  H   H12       1.0  0.3918671106137086  0.6026353514726575  0.7646771960407084  1.0000
  H   H13       1.0  0.9931287460693147  0.608624683443894  0.540843083755294  1.0000
  Zn  Zn1       1.0  0.044579972296289426  0.5621073742774196  0.4016917315706474  1.0000
  Zn  Zn2       1.0  0.25602319216026936  0.5621033888198368  0.4016868696534732  1.0000
  C   C25       1.0  0.15014052775684705  0.5591499195765803  0.6648898897904505  1.0000
  C   C26       1.0  0.15046493461556976  0.5650626653942528  0.1384888424664905  1.0000
  C   C27       1.0  0.14872326248589207  0.8255523023136049  0.3944513603154316  1.0000
  C   C28       1.0  0.15188213808658757  0.29865855006268127  0.4089274586071332  1.0000
  O   O1        1.0  0.23065298777735688  0.5675537257262921  0.19216013379651442  1.0000
  O   O2        1.0  0.23043299285652163  0.5566547415560261  0.6112144997771973  1.0000
  O   O3        1.0  0.22928745040389822  0.7717780506489327  0.39283346533425  1.0000
  O   O4        1.0  0.23179845809805483  0.3524304258095434  0.41054106014547154  1.0000
  O   O5        1.0  0.06880463420330667  0.7717803372905634  0.3928375410727205  1.0000
  O   O6        1.0  0.06995016630066984  0.5566587607950539  0.6112184888441152  1.0000
  O   O7        1.0  0.07017016289116751  0.5675576763102353  0.19216239077738684  1.0000
  O   O8        1.0  0.0713156331885938  0.3524343672201788  0.41054342521440557  1.0000
