data_image0
_chemical_formula_structural       NC8NC6H8C9N2CH8C10IC2H9Zn2C4O8
_chemical_formula_sum              "N4 C40 H25 I1 Zn2 O8"
_cell_length_a       17.457602349358154
_cell_length_b       10.29904407246008
_cell_length_c       10.299773630820606
_cell_angle_alpha    85.5262470586481
_cell_angle_beta     92.88150931118494
_cell_angle_gamma    91.71136987994299

_space_group_name_H-M_alt    "P 1"
_space_group_IT_number       1

loop_
  _space_group_symop_operation_xyz
  'x, y, z'

loop_
  _atom_site_type_symbol
  _atom_site_label
  _atom_site_symmetry_multiplicity
  _atom_site_fract_x
  _atom_site_fract_y
  _atom_site_fract_z
  _atom_site_occupancy
  N   N1        1.0  0.7226896018536906  0.453387977932006  0.6260953651271239  1.0000
  C   C1        1.0  0.6616004395224396  0.40746193016613175  0.6154921519304906  1.0000
  C   C2        1.0  0.5856029403823311  0.35033563868350126  0.6023112951878415  1.0000
  C   C3        1.0  0.5270876103217165  0.3904779042729611  0.6771985975718691  1.0000
  C   C4        1.0  0.4525287184915795  0.3354698752129024  0.6646316028986035  1.0000
  C   C5        1.0  0.39042324751587454  0.3778541216454807  0.7439401314436244  1.0000
  C   C6        1.0  0.31587791695408174  0.3963414460640637  0.6881710738237594  1.0000
  C   C7        1.0  0.2573625470553939  0.43629973626207375  0.7631663812901495  1.0000
  C   C8        1.0  0.1813790844351073  0.45539365405592624  0.7051816773840547  1.0000
  N   N2        1.0  0.12030129552196211  0.47073878364625177  0.6585621282433085  1.0000
  C   C9        1.0  0.2729004284462153  0.45801370786626383  0.8944392016313288  1.0000
  C   C10       1.0  0.3466611658918486  0.4399152849972636  0.9505957539606535  1.0000
  C   C11       1.0  0.4051649969563615  0.40013692353360825  0.8760581223354906  1.0000
  C   C12       1.0  0.4377735692534065  0.23964254407356766  0.5757445597071655  1.0000
  C   C13       1.0  0.49627726709961584  0.1997788596089798  0.501257187610406  1.0000
  C   C14       1.0  0.5700514485268882  0.2548991040613424  0.5143741059782307  1.0000
  H   H1        1.0  0.5394526474225982  0.4656583506434231  0.7438092482280545  1.0000
  H   H2        1.0  0.3035240300836082  0.381401420073726  0.5861498237005277  1.0000
  H   H3        1.0  0.2280497485675266  0.4888810289555614  0.9532670694657301  1.0000
  H   H4        1.0  0.35850168373060837  0.45641322672526874  0.052243312904727175  1.0000
  H   H5        1.0  0.4616495736209413  0.3851294911288492  0.9221690855263458  1.0000
  H   H6        1.0  0.3812778199881821  0.19430622853082014  0.5651050674993887  1.0000
  H   H7        1.0  0.48442623557421655  0.1257153460301714  0.4334478990473448  1.0000
  H   H8        1.0  0.6149019974163417  0.22316184872902656  0.4560576061523838  1.0000
  C   C15       1.0  0.9214105329784459  0.08065811824208581  0.6424393112671252  1.0000
  C   C16       1.0  0.9348787443036276  0.09099381670265916  0.5087164842348237  1.0000
  C   C17       1.0  0.9418018810129771  0.979105648970962  0.440780614006117  1.0000
  C   C18       1.0  0.9350714992358324  0.8557437909110311  0.5084276094970108  1.0000
  C   C19       1.0  0.9215876975554604  0.843458899175107  0.6422299882221669  1.0000
  C   C20       1.0  0.9148418265642299  0.9564353237631366  0.7084102068376056  1.0000
  C   C21       1.0  0.9560643480252363  0.9910728608471194  0.299299266223074  1.0000
  C   C22       1.0  0.00737749185435743  0.9093116508222162  0.24691945092072753  1.0000
  C   C23       1.0  0.019546138151383285  0.923061167399639  0.11382002883146458  1.0000
  N   N3        1.0  0.9815477245703936  0.01526165639002297  0.03651120383480611  1.0000
  N   N4        1.0  0.9325537323344992  0.093429344474911  0.08524440677729128  1.0000
  C   C24       1.0  0.9185914769262163  0.08449467054021897  0.21426809854540776  1.0000
  H   H9        1.0  0.916198496553876  0.4041596015353104  0.6938887435965673  1.0000
  H   H10       1.0  0.9410875069217471  0.1863441821822498  0.4575069751393638  1.0000
  H   H11       1.0  0.939292326523686  0.7691143200232486  0.4562301136680549  1.0000
  H   H12       1.0  0.9044503924026711  0.9477502548653243  0.8115506649100913  1.0000
  H   H13       1.0  0.8956517865511949  0.6129720171230796  0.89460353819084  1.0000
  H   H14       1.0  0.03853604706329716  0.8367311135956046  0.3084773843555586  1.0000
  H   H15       1.0  0.05915493108635573  0.861012416092884  0.07209629355677882  1.0000
  H   H16       1.0  0.8777435287748505  0.1488186074794975  0.2495251611060385  1.0000
  C   C25       1.0  0.9214789042526911  0.4621757922668086  0.2609628590388032  1.0000
  C   C26       1.0  0.998840053179662  0.5037467992633362  0.26331615967434496  1.0000
  C   C27       1.0  0.038059922721026984  0.5246918911161511  0.14738105895758724  1.0000
  C   C28       1.0  0.9988808475583895  0.5035097688372472  0.0280517184272362  1.0000
  C   C29       1.0  0.9215193141596524  0.46194129789859906  0.023706431429649562  1.0000
  C   C30       1.0  0.883251629352177  0.4415064184431967  0.1406787180156608  1.0000
  C   C31       1.0  0.11990069547171789  0.5686691328079256  0.1509241929323382  1.0000
  C   C32       1.0  0.1722382386875838  0.5149341539430232  0.07176650159892262  1.0000
  C   C33       1.0  0.24924621160805163  0.5564514517652288  0.07530087820713893  1.0000
  C   C34       1.0  0.2749028766207047  0.6519614629963959  0.15763292220810657  1.0000
  I   I1        1.0  0.39110007325403795  0.7144019351631516  0.16266166938705753  1.0000
  C   C35       1.0  0.2234535413625367  0.7060372690122472  0.23662788946071284  1.0000
  C   C36       1.0  0.1464025465457444  0.6647692784969035  0.23349428084815038  1.0000
  H   H17       1.0  0.891990909878804  0.4463918346166411  0.5875142091322676  1.0000
  H   H18       1.0  0.02907363107542471  0.5182192149606655  0.35569413398527316  1.0000
  H   H19       1.0  0.02855474530752813  0.5212283600554736  0.9382675284580301  1.0000
  H   H20       1.0  0.8235708623299371  0.4094373132313825  0.13809483307622064  1.0000
  H   H21       1.0  0.8920505633779302  0.4460466090158788  0.6946022568877543  1.0000
  H   H22       1.0  0.15383187611582338  0.43966431383145377  0.008447189156305388  1.0000
  H   H23       1.0  0.28897368347602526  0.5140954545829852  0.014249264565592506  1.0000
  H   H24       1.0  0.2430752947997146  0.7802853873100097  0.3002481143624016  1.0000
  H   H25       1.0  0.1073617753676102  0.709169381757949  0.29432730134771995  1.0000
  Zn  Zn1       1.0  0.8374317473817394  0.4583915603217614  0.6354720711227723  1.0000
  Zn  Zn2       1.0  0.005559133834221132  0.4657245491485673  0.6491960577774878  1.0000
  C   C37       1.0  0.9215087686699852  0.45681134507397014  0.8795328720252753  1.0000
  C   C38       1.0  0.9214839488791695  0.46730648320952634  0.4051355337582619  1.0000
  C   C39       1.0  0.9215499838139121  0.6992747632915653  0.6370940425800108  1.0000
  C   C40       1.0  0.9214426760063692  0.2248415020165493  0.6475744281877995  1.0000
  O   O1        1.0  0.9852891075413761  0.47180555471945684  0.4587293833947792  1.0000
  O   O2        1.0  0.9853084058749256  0.4578768627084917  0.8363548371282263  1.0000
  O   O3        1.0  0.9853408275951895  0.653669101358521  0.6405836964758956  1.0000
  O   O4        1.0  0.985256628447622  0.27601332288822766  0.6545004219860886  1.0000
  O   O5        1.0  0.8577341953947124  0.648102784081128  0.6301677022240169  1.0000
  O   O6        1.0  0.8577017740296968  0.45231210590550724  0.8259387732019199  1.0000
  O   O7        1.0  0.8576824756539206  0.4662407531385097  0.44831175807254264  1.0000
  O   O8        1.0  0.8576499965600312  0.2704485119875071  0.644082894034719  1.0000
