data_image0
_chemical_formula_structural       NC8NC6H8C6NCOC6H10C7OC3OC4H11Zn2C4O8
_chemical_formula_sum              "N3 C45 H29 O11 Zn2"
_cell_length_a       17.457602349358154
_cell_length_b       10.29965916528486
_cell_length_c       10.299374482448636
_cell_angle_alpha    85.5657401976444
_cell_angle_beta     92.85818479457473
_cell_angle_gamma    91.70433465767697

_space_group_name_H-M_alt    "P 1"
_space_group_IT_number       1

loop_
  _space_group_symop_operation_xyz
  'x, y, z'

loop_
  _atom_site_type_symbol
  _atom_site_label
  _atom_site_symmetry_multiplicity
  _atom_site_fract_x
  _atom_site_fract_y
  _atom_site_fract_z
  _atom_site_occupancy
  N   N1        1.0  0.7229379424611321  0.4531326636725797  0.6269586971063128  1.0000
  C   C1        1.0  0.661853864929621  0.4072109072987553  0.6163274994057331  1.0000
  C   C2        1.0  0.5858626886796425  0.35008995434888246  0.6031118335278018  1.0000
  C   C3        1.0  0.5273272044477864  0.3902330564292833  0.6780244511136801  1.0000
  C   C4        1.0  0.4527743711003349  0.3352301766938699  0.6654239396698909  1.0000
  C   C5        1.0  0.39064756317773225  0.3776153230239164  0.7447592004032177  1.0000
  C   C6        1.0  0.3161145590973836  0.3960967227660049  0.689000625572425  1.0000
  C   C7        1.0  0.25757901937061617  0.4360558771659253  0.7640211380980606  1.0000
  C   C8        1.0  0.18160838004062446  0.45514364891636205  0.7060472559085067  1.0000
  N   N2        1.0  0.1205409013700445  0.47048383779762903  0.6594364035612725  1.0000
  C   C9        1.0  0.2730842692510901  0.4577766465654849  0.8953088346760322  1.0000
  C   C10       1.0  0.3468325658842051  0.4396841328461012  0.9514551450678539  1.0000
  C   C11       1.0  0.4053564472301494  0.39990491945962736  0.8768924234428943  1.0000
  C   C12       1.0  0.43804581506276363  0.23940713241618994  0.5764776353306407  1.0000
  C   C13       1.0  0.496569555888571  0.19954260889226472  0.5019651221550188  1.0000
  C   C14       1.0  0.570337540956039  0.25465773016825066  0.5151156324980988  1.0000
  H   H1        1.0  0.5396721262110418  0.46540992112406365  0.7446815538404412  1.0000
  H   H2        1.0  0.3037859251391152  0.3811512016493679  0.5869689875893156  1.0000
  H   H3        1.0  0.2282177941776657  0.48864469779978403  0.954156184789093  1.0000
  H   H4        1.0  0.3586478338980579  0.45618737285649047  0.053114031614254986  1.0000
  H   H5        1.0  0.4618308166878444  0.38490235520332705  0.9229948879697046  1.0000
  H   H6        1.0  0.3815551265856733  0.19407504110530072  0.5658105157186986  1.0000
  H   H7        1.0  0.4847388647357458  0.12548247079710828  0.43411004313402257  1.0000
  H   H8        1.0  0.6152038108477952  0.22291987576953387  0.45677912958895805  1.0000
  C   C15       1.0  0.9216756263265451  0.08044479100287738  0.6430768588167941  1.0000
  C   C16       1.0  0.9222226838306208  0.08978190375628392  0.5063026770776129  1.0000
  C   C17       1.0  0.9236295676661338  0.977698986341356  0.43758055511766836  1.0000
  C   C18       1.0  0.922367179175652  0.8545978466789355  0.5066108705302101  1.0000
  C   C19       1.0  0.9218105330018881  0.8431619698845104  0.6433300442881773  1.0000
  C   C20       1.0  0.9217378652213455  0.9567054029847545  0.7108133925323961  1.0000
  N   N3        1.0  0.9230102941239136  0.9907778196782963  0.29746089656687236  1.0000
  C   C21       1.0  0.9589877050597019  0.9012378086884244  0.22067188175638197  1.0000
  O   O1        1.0  0.011904233246104795  0.8307173061912372  0.2719733302464584  1.0000
  C   C22       1.0  0.9367137664700265  0.8941018705034998  0.08048333416684517  1.0000
  C   C23       1.0  0.865780780104265  0.9408746512731598  0.02834252376804258  1.0000
  C   C24       1.0  0.8452470369921902  0.9329960598722404  0.8961398944293837  1.0000
  C   C25       1.0  0.894931892803693  0.8780975015637191  0.814739941453451  1.0000
  C   C26       1.0  0.9651897713175543  0.830508063754175  0.8654493586450367  1.0000
  C   C27       1.0  0.986016418862996  0.8380431295014615  0.9975714367699706  1.0000
  H   H9        1.0  0.9199114319486656  0.27006389771625244  0.9010169948886461  1.0000
  H   H10       1.0  0.922144494488976  0.18440052169089305  0.45247219007765765  1.0000
  H   H11       1.0  0.9204717922370239  0.7677370203079599  0.4536496295723022  1.0000
  H   H12       1.0  0.9213264042257301  0.9486426024014685  0.8162516901317844  1.0000
  H   H13       1.0  0.9011285584293494  0.07596672147006879  0.2497321499679432  1.0000
  H   H14       1.0  0.8255657261438638  0.9818012503941657  0.08954127285354363  1.0000
  H   H15       1.0  0.7905773594200801  0.9690518599835675  0.8568878196692157  1.0000
  H   H16       1.0  0.8788842763657246  0.8720637881084327  0.7124695658209483  1.0000
  H   H17       1.0  0.003589925525280478  0.787706906923585  0.80233860666427  1.0000
  H   H18       1.0  0.040878631539791765  0.8008101369416194  0.03462048533980644  1.0000
  C   C28       1.0  0.9218141728274981  0.4618939886948988  0.26182676189641874  1.0000
  C   C29       1.0  0.001953403385649203  0.48005520308708755  0.26600611837435073  1.0000
  C   C30       1.0  0.04227676107516422  0.49068235308126656  0.1508188546869138  1.0000
  C   C31       1.0  0.0017700094867858505  0.4799833305678743  0.030752267039964032  1.0000
  C   C32       1.0  0.9216719884348995  0.4617127947788578  0.024580119586091742  1.0000
  C   C33       1.0  0.882135886434103  0.45311391867983475  0.14065979719524657  1.0000
  C   C34       1.0  0.12698805367214816  0.5085047750691443  0.15520386429533595  1.0000
  O   O2        1.0  0.1646181261571138  0.45660612827096303  0.07241349783133089  1.0000
  C   C35       1.0  0.16900668158891735  0.5852180965296705  0.253427703830553  1.0000
  C   C36       1.0  0.24385125772006444  0.5517672736842558  0.297693913500527  1.0000
  C   C37       1.0  0.28484304133980304  0.6238185622859367  0.3892679261890417  1.0000
  O   O3        1.0  0.35906359744878724  0.5851662710360475  0.43061047594286644  1.0000
  C   C38       1.0  0.4071430449652702  0.6491336891738835  0.5229497583516967  1.0000
  C   C39       1.0  0.25056630917075196  0.7317068250962334  0.4364174626295569  1.0000
  C   C40       1.0  0.1766177157293598  0.7665299300947801  0.39171430925869255  1.0000
  C   C41       1.0  0.13606869627596163  0.6942649596283772  0.3004174217760509  1.0000
  H   H19       1.0  0.7707123825828737  0.42563976903876966  0.46142578111792565  1.0000
  H   H20       1.0  0.033200783420332065  0.48451073240174747  0.35915078407360057  1.0000
  H   H21       1.0  0.03284089902311593  0.48719468818778405  0.9418985012671302  1.0000
  H   H22       1.0  0.8203543945919621  0.4391120978486598  0.1366341029770881  1.0000
  H   H23       1.0  0.27044277612210244  0.4686175810883935  0.26196072782619106  1.0000
  H   H24       1.0  0.46235826258138624  0.5981872870858096  0.5374016885986248  1.0000
  H   H25       1.0  0.379439049948896  0.6461238089363555  0.6179209248342448  1.0000
  H   H26       1.0  0.4189560526973515  0.7516525694665523  0.4862855383370215  1.0000
  H   H27       1.0  0.28064051162026327  0.7894556568168819  0.507082908326536  1.0000
  H   H28       1.0  0.15074681523989275  0.8502001083332726  0.4275354440239087  1.0000
  H   H29       1.0  0.07934189175920464  0.7245154524554087  0.26556998509551133  1.0000
  Zn  Zn1       1.0  0.8376775657241251  0.45813635328395225  0.6363385590975879  1.0000
  Zn  Zn2       1.0  0.005801259991735193  0.46546949798913273  0.6500671707797037  1.0000
  C   C42       1.0  0.9216962448149156  0.4565733734323006  0.8804015818212954  1.0000
  C   C43       1.0  0.9217844170725542  0.4670341964849589  0.40600442598505  1.0000
  C   C44       1.0  0.921782058344266  0.6989932732240671  0.638106606455243  1.0000
  C   C45       1.0  0.92169854588543  0.22461273389362657  0.6482994653885426  1.0000
  O   O4        1.0  0.9855764955577215  0.4715365217118561  0.4596017018376159  1.0000
  O   O5        1.0  0.9855061600577648  0.457635755739176  0.8372236303980884  1.0000
  O   O6        1.0  0.9855745952339001  0.6533928528036362  0.6415686537276868  1.0000
  O   O7        1.0  0.9855080030321515  0.2757794314583131  0.6552565764498004  1.0000
  O   O8        1.0  0.8579707653113448  0.6478264173137454  0.631149148735759  1.0000
  O   O9        1.0  0.8579023304206185  0.4520708805478224  0.8268040566769879  1.0000
  O   O10       1.0  0.8579726662546407  0.46597160163829027  0.4491805666730908  1.0000
  O   O11       1.0  0.8579041737061414  0.2702145020728026  0.6448355386517604  1.0000
