data_image0
_chemical_formula_structural       NC9NC5H8C6OCH8C6FH3Zn2C4O8
_chemical_formula_sum              "N2 C31 H19 O9 F1 Zn2"
_cell_length_a       17.807436237873137
_cell_length_b       9.273888216677435
_cell_length_c       9.275646106892307
_cell_angle_alpha    85.15247369162395
_cell_angle_beta     89.39821068290671
_cell_angle_gamma    87.81887448081709

_space_group_name_H-M_alt    "P 1"
_space_group_IT_number       1

loop_
  _space_group_symop_operation_xyz
  'x, y, z'

loop_
  _atom_site_type_symbol
  _atom_site_label
  _atom_site_symmetry_multiplicity
  _atom_site_fract_x
  _atom_site_fract_y
  _atom_site_fract_z
  _atom_site_occupancy
  N   N1        1.0  0.6989643968949566  0.5583963044892604  0.402028847231485  1.0000
  C   C1        1.0  0.6385772300890521  0.5194441001992406  0.3896377232410484  1.0000
  C   C2        1.0  0.5634622316450449  0.4709918479057813  0.3742245106274582  1.0000
  C   C3        1.0  0.5457534442247223  0.39292083552844853  0.2572484736614078  1.0000
  C   C4        1.0  0.4728212712252722  0.3457545824765308  0.24219096948605223  1.0000
  C   C5        1.0  0.4165513416410457  0.37624042924294443  0.34407193598897345  1.0000
  C   C6        1.0  0.3390426014731645  0.3262415066953141  0.32816137648082355  1.0000
  C   C7        1.0  0.2764008411884843  0.416735147303549  0.357313125982037  1.0000
  C   C8        1.0  0.20332754182936807  0.3693432309991977  0.3422700180982534  1.0000
  C   C9        1.0  0.13962022865392754  0.46282166439357186  0.3718368887417933  1.0000
  N   N2        1.0  0.08841257073980319  0.5379718446690873  0.39560782213293777  1.0000
  C   C10       1.0  0.1923139428944963  0.23117145330393105  0.2980459625675387  1.0000
  C   C11       1.0  0.2540984110529577  0.14066252733619233  0.26888483430195453  1.0000
  C   C12       1.0  0.3270545019303947  0.1876186543352354  0.2837012871945017  1.0000
  C   C13       1.0  0.4349487374116898  0.4548579024561228  0.46129357446627534  1.0000
  C   C14       1.0  0.5079348379376263  0.5018145425053584  0.47617734310254217  1.0000
  H   H1        1.0  0.5882576123066423  0.3687982564439515  0.1774630946689204  1.0000
  H   H2        1.0  0.4601951796711839  0.2871163843123268  0.14982611080480912  1.0000
  H   H3        1.0  0.2843428794683432  0.5246405715933311  0.38979256334548906  1.0000
  H   H4        1.0  0.1360427323150641  0.19349548256596671  0.28613622937806005  1.0000
  H   H5        1.0  0.24545293542572189  0.03368216625737165  0.23507461704747087  1.0000
  H   H6        1.0  0.3740701242987206  0.11482584076619862  0.2622708243508627  1.0000
  H   H7        1.0  0.3931649438414516  0.4783664466297161  0.5425154125268346  1.0000
  H   H8        1.0  0.5210819157336564  0.5618207147579417  0.5673894758661684  1.0000
  C   C15       1.0  0.8958981343694887  0.12462179373448379  0.397307383668396  1.0000
  C   C16       1.0  0.8783164422381637  0.21017938943230632  0.26868677169886807  1.0000
  C   C17       1.0  0.8543432956587819  0.14802446502105981  0.14583375452072223  1.0000
  C   C18       1.0  0.8478127457609959  0.9973307115029564  0.15114016095511307  1.0000
  C   C19       1.0  0.8661800735821837  0.9105663727133683  0.27697163560203264  1.0000
  C   C20       1.0  0.8914860545773232  0.9717347803989654  0.4003416609697783  1.0000
  O   O1        1.0  0.8372181617635518  0.23968003393776602  0.021448706178608164  1.0000
  C   C21       1.0  0.8121030057809976  0.1914869313042557  0.8890451862764194  1.0000
  H   H9        1.0  0.9021114549929803  0.19719842065387286  0.7523693778961128  1.0000
  H   H10       1.0  0.8814891325515184  0.3269341231125799  0.2643565868358706  1.0000
  H   H11       1.0  0.8292402178876627  0.9458617711630716  0.05810459086005171  1.0000
  H   H12       1.0  0.8622750686506904  0.7943078679795915  0.2765554414192035  1.0000
  H   H13       1.0  0.8988194226721185  0.6698827955933714  0.6384376827071578  1.0000
  H   H14       1.0  0.7581825095094035  0.13601362334519584  0.906567493718895  1.0000
  H   H15       1.0  0.8552343497208477  0.117077466387429  0.8450578840164655  1.0000
  H   H16       1.0  0.8029428401696398  0.28650244523281665  0.8094035286336783  1.0000
  C   C22       1.0  0.893581131308629  0.5526973725971164  0.9750016891736853  1.0000
  C   C23       1.0  0.9623090869082083  0.5641638296331373  0.04598210185805862  1.0000
  C   C24       1.0  0.030176114932922937  0.5621358002482335  0.9694226906951986  1.0000
  C   C25       1.0  0.030507838241449644  0.5484609294979825  0.8209932069497738  1.0000
  C   C26       1.0  0.9629449231923459  0.5393376684456486  0.7480700345810556  1.0000
  C   C27       1.0  0.893803045148874  0.5436592241027958  0.8226473478009052  1.0000
  F   F1        1.0  0.09591656288545236  0.5717066905438211  0.039819543897175576  1.0000
  H   H17       1.0  0.7199401860473649  0.4446535974346157  0.0906078042642422  1.0000
  H   H18       1.0  0.08320120632585916  0.5463006944098492  0.7618111795471081  1.0000
  H   H19       1.0  0.7762147826233147  0.476885145619079  0.5494852406688726  1.0000
  Zn  Zn1       1.0  0.8113507483607999  0.5524983089061668  0.4001842111966145  1.0000
  Zn  Zn2       1.0  0.9760262654200875  0.5438579563524044  0.39746428118443616  1.0000
  C   C28       1.0  0.8937893722649323  0.5396216240662943  0.6624036158154145  1.0000
  C   C29       1.0  0.8935894303258392  0.5567363652393246  0.1352449950388095  1.0000
  C   C30       1.0  0.8923146711372598  0.8116739210067765  0.3940169069615498  1.0000
  C   C31       1.0  0.8950640843071159  0.284682337498559  0.40363177555988483  1.0000
  O   O2        1.0  0.9560857488361134  0.5548066267258738  0.18799189052386667  1.0000
  O   O3        1.0  0.9562779664290701  0.5349924512304723  0.6075919370259877  1.0000
  O   O4        1.0  0.955086284568991  0.75467814978133  0.39086779003270533  1.0000
  O   O5        1.0  0.957277374421519  0.3351209425952937  0.4047159302678378  1.0000
  O   O6        1.0  0.8300995831636863  0.7612353256134574  0.39293256303380586  1.0000
  O   O7        1.0  0.8312912559744787  0.5415513608130629  0.6096566392804701  1.0000
  O   O8        1.0  0.8310990382389492  0.5613655045449788  0.1900548573819698  1.0000
  O   O9        1.0  0.8322906639033459  0.34167980894430094  0.4067790052958453  1.0000
