data_image0
_chemical_formula_structural       NC9NC3NH7C6SCNH4C6NO2H3Zn2C4O8
_chemical_formula_sum              "N5 C29 H14 S1 O10 Zn2"
_cell_length_a       16.053384444249904
_cell_length_b       10.302215558581763
_cell_length_c       9.273395971720356
_cell_angle_alpha    84.96984654489938
_cell_angle_beta     89.67931749283619
_cell_angle_gamma    89.19414689339631

_space_group_name_H-M_alt    "P 1"
_space_group_IT_number       1

loop_
  _space_group_symop_operation_xyz
  'x, y, z'

loop_
  _atom_site_type_symbol
  _atom_site_label
  _atom_site_symmetry_multiplicity
  _atom_site_fract_x
  _atom_site_fract_y
  _atom_site_fract_z
  _atom_site_occupancy
  N   N1        1.0  0.7865441590803851  0.4185500620865341  0.40449526007703085  1.0000
  C   C1        1.0  0.7358816363506137  0.39852361460113794  0.3212926953712225  1.0000
  C   C2        1.0  0.6729219240897713  0.37364032793483276  0.21793482657278251  1.0000
  C   C3        1.0  0.6867059849521443  0.36292849043255915  0.072611563356046  1.0000
  C   C4        1.0  0.6101441173837897  0.3381527152388284  0.014523811435079637  1.0000
  C   C5        1.0  0.5529165229991984  0.3351288984955101  0.12754085679867022  1.0000
  C   C6        1.0  0.4622723000738657  0.311420617005588  0.11614770454045174  1.0000
  C   C7        1.0  0.4062637840327264  0.35314325598527385  0.22053904556102144  1.0000
  C   C8        1.0  0.3207231596169741  0.33065916574234766  0.20962658590522887  1.0000
  C   C9        1.0  0.263931871777752  0.37410147818098305  0.3166547301237483  1.0000
  N   N2        1.0  0.2182883575124956  0.40902298694506056  0.40268859712497246  1.0000
  C   C10       1.0  0.2904649797629197  0.26634033910709154  0.09433801160370203  1.0000
  C   C11       1.0  0.3454646950798789  0.22473507628828474  0.990181974345646  1.0000
  C   C12       1.0  0.4307998323342249  0.2470576181350552  0.0006535757676975365  1.0000
  N   N3        1.0  0.5919654780951632  0.356932220612983  0.2515471226262971  1.0000
  H   H1        1.0  0.7455091636663929  0.37209928733650544  0.015236747155584094  1.0000
  H   H2        1.0  0.5980119177091494  0.32543755152709064  0.9020565289774235  1.0000
  H   H3        1.0  0.428489298024159  0.4047563489269932  0.30924861608829235  1.0000
  H   H4        1.0  0.2244498170891241  0.24846629010262286  0.08496228573806604  1.0000
  H   H5        1.0  0.3219494974775949  0.17476574775867282  0.9012126566599383  1.0000
  H   H6        1.0  0.4720064134192914  0.212386223229285  0.9192276703412963  1.0000
  H   H7        1.0  0.5656818179306614  0.3583324299769832  0.35465769118491386  1.0000
  C   C13       1.0  0.0023375330280766  0.03251644104626461  0.40355250194658443  1.0000
  C   C14       1.0  0.08577935595033304  0.026178094781735606  0.44862906745211495  1.0000
  C   C15       1.0  0.12730308307561278  0.9059788880829093  0.47151762624493154  1.0000
  C   C16       1.0  0.08599575588578667  0.7909969660514655  0.448750399478268  1.0000
  C   C17       1.0  0.002502893343709009  0.7950463335136051  0.4036437460397706  1.0000
  C   C18       1.0  0.9611228703534734  0.9163113998280276  0.3813484338517686  1.0000
  S   S1        1.0  0.23390934399481547  0.8994104694286963  0.5284647907517821  1.0000
  C   C19       1.0  0.20621727490078556  0.8854559946031242  0.7135733270989373  1.0000
  N   N4        1.0  0.18803732398349535  0.8763085966904681  0.8349279128648648  1.0000
  H   H8        1.0  0.11883546797350641  0.11425419772141776  0.46640399628131946  1.0000
  H   H9        1.0  0.11920020095103068  0.698787257420485  0.46660856922502875  1.0000
  H   H10       1.0  0.8967691092280066  0.9203499370532356  0.34660383602565026  1.0000
  H   H11       1.0  0.8451547763824852  0.5954724749527613  0.3184742813711647  1.0000
  C   C20       1.0  0.0028951738985212292  0.41775954086252887  0.979659922939657  1.0000
  C   C21       1.0  0.9286502795519211  0.44903251611773154  0.05056088196514085  1.0000
  C   C22       1.0  0.854169535268585  0.4680340084625158  0.9744452246080808  1.0000
  C   C23       1.0  0.8518206507545026  0.45615779813514634  0.8251589772800088  1.0000
  C   C24       1.0  0.9260215088343442  0.4271105052309329  0.7528207928890875  1.0000
  C   C25       1.0  0.00194525759455954  0.4098032585509159  0.8275363849736883  1.0000
  N   N5        1.0  0.7745947134853262  0.47478718298042627  0.7473466708106412  1.0000
  O   O1        1.0  0.7022029350494028  0.5042875359072385  0.8184275602973261  1.0000
  O   O2        1.0  0.7719392745417298  0.4641458895422879  0.6143609502651075  1.0000
  H   H12       1.0  0.18515656995019047  0.2682845375703644  0.09530164258251972  1.0000
  H   H13       1.0  0.7981078903672038  0.4908000874960168  0.03306539951722742  1.0000
  H   H14       1.0  0.12621613903508955  0.31292969474137733  0.5555557354439856  1.0000
  Zn  Zn1       1.0  0.9111361962078344  0.41579721320900376  0.40398222496711694  1.0000
  Zn  Zn2       1.0  0.09369628141229236  0.4117651474478783  0.4032134300043235  1.0000
  C   C26       1.0  0.002121848463255247  0.4061348740071084  0.6672689484627636  1.0000
  C   C27       1.0  0.0027126229038951805  0.42142907948447705  0.13992684000412514  1.0000
  C   C28       1.0  0.0024738157690955558  0.6509660531517203  0.3978737105722673  1.0000
  C   C29       1.0  0.002360592878498657  0.17659634109579958  0.4093221549374346  1.0000
  O   O3        1.0  0.07193195680914433  0.42112479795342134  0.19342212706749362  1.0000
  O   O4        1.0  0.07146139532849904  0.4033779353525209  0.6131897481184704  1.0000
  O   O5        1.0  0.07174467776183115  0.6010822153656754  0.3956511916005351  1.0000
  O   O6        1.0  0.07164861220370389  0.2234205296196847  0.41096057560501853  1.0000
  O   O7        1.0  0.9331838031176344  0.6041418324146277  0.39623507962118076  1.0000
  O   O8        1.0  0.93290052110507  0.4064391130229692  0.6137735593510614  1.0000
  O   O9        1.0  0.9333710845758383  0.4241859466657243  0.1940042026064921  1.0000
  O   O10       1.0  0.9330877398437176  0.22648166803000078  0.4115427593791861  1.0000
