data_image0
_chemical_formula_structural       NC5NC4H6C9H10C6ClH5Zn2C4O8
_chemical_formula_sum              "N2 C28 H21 Cl1 Zn2 O8"
_cell_length_a       13.854160002989762
_cell_length_b       10.297183801781406
_cell_length_c       10.302974078461048
_cell_angle_alpha    85.53397833117516
_cell_angle_beta     89.99987288003342
_cell_angle_gamma    89.99762469776624

_space_group_name_H-M_alt    "P 1"
_space_group_IT_number       1

loop_
  _space_group_symop_operation_xyz
  'x, y, z'

loop_
  _atom_site_type_symbol
  _atom_site_label
  _atom_site_symmetry_multiplicity
  _atom_site_fract_x
  _atom_site_fract_y
  _atom_site_fract_z
  _atom_site_occupancy
  N   N1        1.0  0.9088673646556902  0.4216836352400947  0.5673164460619189  1.0000
  C   C1        1.0  0.8365340704410099  0.4443930309450774  0.5141295259326935  1.0000
  C   C2        1.0  0.7465504341908509  0.4726441351527919  0.4479629608968227  1.0000
  C   C3        1.0  0.6589799326245798  0.446087366235008  0.5125682632009025  1.0000
  C   C4        1.0  0.571408021819237  0.4726441480598784  0.4479629400219609  1.0000
  C   C5        1.0  0.48142592908057985  0.4443928982490292  0.5141296085065366  1.0000
  N   N2        1.0  0.4090937940596268  0.42168357804612056  0.5673164460097144  1.0000
  C   C6        1.0  0.5714392300851593  0.5263038957595262  0.31876917428972384  1.0000
  C   C7        1.0  0.6589769393885687  0.5547973594699354  0.2540698403758399  1.0000
  C   C8        1.0  0.6589755104471938  0.6086743351352442  0.11452908521560466  1.0000
  C   C9        1.0  0.746516319120999  0.5263038945659708  0.3187690929864839  1.0000
  H   H1        1.0  0.6589810857746434  0.40445551741070074  0.6125619109038793  1.0000
  H   H2        1.0  0.5035657399138335  0.5459278828197655  0.26864278602594927  1.0000
  H   H3        1.0  0.7238279224694465  0.6700691220691704  0.09307931170000061  1.0000
  H   H4        1.0  0.5941194448106234  0.6700691237595684  0.09307937031406775  1.0000
  H   H5        1.0  0.6589781715248397  0.5271359543455296  0.050124869722010024  1.0000
  H   H6        1.0  0.8143886989928366  0.545927984137972  0.268642709045956  1.0000
  C   C10       1.0  0.15898858026981602  0.04020804255399435  0.56750041597629  1.0000
  C   C11       1.0  0.15617475280114324  0.050068031553579966  0.43088493470513245  1.0000
  C   C12       1.0  0.15473292344176756  0.938503104862347  0.36089282859049193  1.0000
  C   C13       1.0  0.15616344513674396  0.8148969387446308  0.43035543332891363  1.0000
  C   C14       1.0  0.15898183840636704  0.803149169149683  0.5671437132202927  1.0000
  C   C15       1.0  0.16037509179072934  0.9162808494441839  0.6348232819156183  1.0000
  C   C16       1.0  0.15168930328741112  0.9585995740029868  0.2131335389701896  1.0000
  C   C17       1.0  0.09517072350440013  0.8598826695803584  0.1408631481678262  1.0000
  C   C18       1.0  0.2051355491029089  0.8601908682128064  0.136738933778721  1.0000
  H   H7        1.0  0.1600820034185668  0.36394712651910655  0.6201427428751742  1.0000
  H   H8        1.0  0.15508866284581568  0.14529689664059164  0.37814382164330995  1.0000
  H   H9        1.0  0.15510517400195734  0.7272972355798064  0.37907893077204813  1.0000
  H   H10       1.0  0.1625455349828031  0.9079462180128665  0.7402249945434871  1.0000
  H   H11       1.0  0.1642921678207365  0.5737444903564857  0.8254982574730095  1.0000
  H   H12       1.0  0.15071191642051374  0.05931514038684504  0.165641105760433  1.0000
  H   H13       1.0  0.06296177611683396  0.7762451624905091  0.19994504798290635  1.0000
  H   H14       1.0  0.06111803030487417  0.9007556483370956  0.04900947064352334  1.0000
  H   H15       1.0  0.23972432813341127  0.7767413749555532  0.19331627255954675  1.0000
  H   H16       1.0  0.23535245712671937  0.9012416081793378  0.04247363658577829  1.0000
  C   C19       1.0  0.15898520947538097  0.42167862195093364  0.1860795847326855  1.0000
  C   C20       1.0  0.14219653258374398  0.28675542736821735  0.1953763293158084  1.0000
  C   C21       1.0  0.13386649852209453  0.21981021312200275  0.08303232921960957  1.0000
  C   C22       1.0  0.14219657575260977  0.2867555007328362  0.960268430310407  1.0000
  C   C23       1.0  0.1589852070139299  0.4216785548953119  0.9485646038374536  1.0000
  C   C24       1.0  0.16729772549187608  0.4884824863972734  0.06212315255593847  1.0000
  Cl  Cl1       1.0  0.1128934558101282  0.051259090002832464  0.09614971454599397  1.0000
  H   H17       1.0  0.16530977084735515  0.4725018605781696  0.5098806005983877  1.0000
  H   H18       1.0  0.1355192968629395  0.233093322151386  0.2895990914499922  1.0000
  H   H19       1.0  0.13551936431221878  0.23309330361499067  0.8743981253847566  1.0000
  H   H20       1.0  0.18024561371698358  0.5925393037346138  0.05402489906490149  1.0000
  H   H21       1.0  0.16530958717881764  0.4725018490824963  0.6168529701223728  1.0000
  Zn  Zn1       1.0  0.05322191227993665  0.4216801407910442  0.5673239529064515  1.0000
  Zn  Zn2       1.0  0.2647392477042274  0.4216764421894874  0.5673196063667498  1.0000
  C   C25       1.0  0.15898308668319894  0.41650346730761667  0.8044410010305776  1.0000
  C   C26       1.0  0.15898038304916784  0.42685475471029827  0.33020268485308524  1.0000
  C   C27       1.0  0.15897813096208768  0.6589370529546583  0.5620377030963553  1.0000
  C   C28       1.0  0.1589852666080213  0.18441960832564042  0.5726060527341161  1.0000
  O   O1        1.0  0.23924848976830623  0.4285848412231965  0.37857006699458834  1.0000
  O   O2        1.0  0.23925174338179706  0.41476959364527977  0.7560699467020555  1.0000
  O   O3        1.0  0.23924665949998825  0.6105377800652743  0.560327567967388  1.0000
  O   O4        1.0  0.23925350147349622  0.23281666409728816  0.574312348384006  1.0000
  O   O5        1.0  0.07870758633018182  0.6105399188859193  0.5603312108838494  1.0000
  O   O6        1.0  0.07871267019376284  0.41477329320621714  0.7560735196663619  1.0000
  O   O7        1.0  0.07870941664490448  0.428588495515587  0.3785720790969662  1.0000
  O   O8        1.0  0.07871442834622733  0.232820309098269  0.5743144578262873  1.0000
