data_image0
_chemical_formula_structural       NC11NC3H8C7OC3FC3H8C7OC6H10Zn2C4O8
_chemical_formula_sum              "N2 C44 H26 O10 F1 Zn2"
_cell_length_a       17.807433833752565
_cell_length_b       10.29937835083307
_cell_length_c       10.299382801718284
_cell_angle_alpha    85.56292937340861
_cell_angle_beta     88.5048620642858
_cell_angle_gamma    90.70491928007121

_space_group_name_H-M_alt    "P 1"
_space_group_IT_number       1

loop_
  _space_group_symop_operation_xyz
  'x, y, z'

loop_
  _atom_site_type_symbol
  _atom_site_label
  _atom_site_symmetry_multiplicity
  _atom_site_fract_x
  _atom_site_fract_y
  _atom_site_fract_z
  _atom_site_occupancy
  N   N1        1.0  0.7079977457893329  0.4382696491020454  0.5344332396158427  1.0000
  C   C1        1.0  0.6571580694662544  0.40355368416376414  0.6010010769973999  1.0000
  C   C2        1.0  0.5939083887474624  0.3603698848094398  0.6838029719461933  1.0000
  C   C3        1.0  0.605598363338571  0.29683953117575945  0.8065314381455018  1.0000
  C   C4        1.0  0.544256870430133  0.2553351593417279  0.8870491429869061  1.0000
  C   C5        1.0  0.4710708652032514  0.2770479771129031  0.8454792269756888  1.0000
  C   C6        1.0  0.4584042191853832  0.34073280397858796  0.7222905385277356  1.0000
  C   C7        1.0  0.3806508137585802  0.36377528616193544  0.6779397606824311  1.0000
  C   C8        1.0  0.3618890117527905  0.3468783377642106  0.5483613141483474  1.0000
  C   C9        1.0  0.2886730645519687  0.3685524176787345  0.5067473321818223  1.0000
  C   C10       1.0  0.23327607183871252  0.4074418358812326  0.5938914713899215  1.0000
  C   C11       1.0  0.1579238057575815  0.42977415821042997  0.5509160907347421  1.0000
  N   N2        1.0  0.0973459563153255  0.4477276862426227  0.5163670124326989  1.0000
  C   C12       1.0  0.2513464577765683  0.42454927231361445  0.7229387500337435  1.0000
  C   C13       1.0  0.32450958615342845  0.4028403081192007  0.7648081676988336  1.0000
  C   C14       1.0  0.5206030198267055  0.38223261371674927  0.6417892502703162  1.0000
  H   H1        1.0  0.6620540219748955  0.2794304615364107  0.8398997268001651  1.0000
  H   H2        1.0  0.5534261975255227  0.20589823694760856  0.9817930887864825  1.0000
  H   H3        1.0  0.42441203723529747  0.24250216919366355  0.908923740633744  1.0000
  H   H4        1.0  0.4035741930305459  0.3152224228169036  0.4796491998837243  1.0000
  H   H5        1.0  0.2752482157668349  0.3546525827573639  0.406714417420879  1.0000
  H   H6        1.0  0.20894433918734148  0.4549820126828758  0.7911362756757938  1.0000
  H   H7        1.0  0.3374063594679418  0.41828558489731305  0.8646580969960982  1.0000
  H   H8        1.0  0.5121324077173924  0.4330319906163205  0.5472794185923233  1.0000
  C   C15       1.0  0.9025962434344246  0.061611871610772966  0.5254676261921498  1.0000
  C   C16       1.0  0.8242149934819617  0.05971263256016311  0.513079800998742  1.0000
  C   C17       1.0  0.7845859796570447  0.941464836223042  0.5083135180469589  1.0000
  C   C18       1.0  0.8243986920965496  0.824473093271139  0.5130781524018213  1.0000
  C   C19       1.0  0.9027546186185244  0.8243756711534761  0.525343483437178  1.0000
  C   C20       1.0  0.9413767735578249  0.9434535630542694  0.531810261942594  1.0000
  C   C21       1.0  0.7019138924338204  0.9394237632931983  0.493855307661697  1.0000
  O   O1        1.0  0.6729087780411741  0.8540168840970634  0.42854003950684194  1.0000
  C   C22       1.0  0.6521463760800134  0.03417258430969895  0.5535036260991528  1.0000
  C   C23       1.0  0.5852365118732427  0.07253399289294447  0.4928273479185772  1.0000
  C   C24       1.0  0.5375025895761918  0.1606409430648974  0.5491032788681856  1.0000
  F   F1        1.0  0.4734132448494016  0.197763130728843  0.4893574873082425  1.0000
  C   C25       1.0  0.5557646893883859  0.21040244544174283  0.6668612224781806  1.0000
  C   C26       1.0  0.6215957696299609  0.17176269927138257  0.7288021232236632  1.0000
  C   C27       1.0  0.6694849552446207  0.08373120073143679  0.6729237008748259  1.0000
  H   H9        1.0  0.7939884810689783  0.15048823670284417  0.5056691978356442  1.0000
  H   H10       1.0  0.7939860494661277  0.7332646454158042  0.5084370170474022  1.0000
  H   H11       1.0  0.0018028925881676805  0.944113731763187  0.5413596124751829  1.0000
  H   H12       1.0  0.9329263090456933  0.49696794483952117  0.5289559048482326  1.0000
  H   H13       1.0  0.5702863042851686  0.03515256588452375  0.40136248756382714  1.0000
  H   H14       1.0  0.5187927849215815  0.27849979594683116  0.710455836235458  1.0000
  H   H15       1.0  0.6353844806579186  0.209603112417021  0.8205344493018661  1.0000
  H   H16       1.0  0.719542291835297  0.05339474621111973  0.7237532522512744  1.0000
  C   C28       1.0  0.9027503659798473  0.44292235160167537  0.14403229797653827  1.0000
  C   C29       1.0  0.9816770011046302  0.4457031352577341  0.1390662116157959  1.0000
  C   C30       1.0  0.02148504866345924  0.4456175378076599  0.019503585144948987  1.0000
  C   C31       1.0  0.9814939343219717  0.4457267260953211  0.903829133173411  1.0000
  C   C32       1.0  0.902600481057156  0.4430651721428611  0.9067787645639727  1.0000
  C   C33       1.0  0.8636862629473117  0.4413336862126158  0.027424991293379056  1.0000
  C   C34       1.0  0.10482160351745029  0.44993770042143183  0.014007816657153336  1.0000
  O   O2        1.0  0.13793582706250573  0.5114534739378578  0.9179351229545536  1.0000
  C   C35       1.0  0.15059191241734937  0.38446362602051165  0.11740037342062615  1.0000
  C   C36       1.0  0.221216386463581  0.43664109336155743  0.14521699718758874  1.0000
  C   C37       1.0  0.26515517207535355  0.374771992475393  0.2414422254725737  1.0000
  C   C38       1.0  0.23938932998870666  0.2598378284809786  0.3100192342953947  1.0000
  C   C39       1.0  0.16976077172510484  0.20623753163050274  0.282133601342609  1.0000
  C   C40       1.0  0.1256078911764651  0.2677227038459449  0.18602042603725866  1.0000
  H   H17       1.0  0.7538044084343228  0.43968638338360844  0.36056826241551826  1.0000
  H   H18       1.0  0.012283720480185773  0.44939722792825704  0.2282444124840961  1.0000
  H   H19       1.0  0.012107788822465656  0.4466417535466621  0.8114571015107042  1.0000
  H   H20       1.0  0.80283977417231  0.4391907102776562  0.030449234277208248  1.0000
  H   H21       1.0  0.8722933254516156  0.4431477491325435  0.5803698922660558  1.0000
  H   H22       1.0  0.2420923885635362  0.5258248913586623  0.09329926861704285  1.0000
  H   H23       1.0  0.3192420783189214  0.41597125099211424  0.262799107777489  1.0000
  H   H24       1.0  0.2735075035000405  0.21203736835833387  0.38438694636804904  1.0000
  H   H25       1.0  0.15010754243414337  0.11662750979555114  0.3346234234549488  1.0000
  H   H26       1.0  0.07242240375772391  0.22326303904142875  0.16443599805564912  1.0000
  Zn  Zn1       1.0  0.8203552265696261  0.440995560914871  0.5292272018723412  1.0000
  Zn  Zn2       1.0  0.9849884564893253  0.4449911563197992  0.5215836380387447  1.0000
  C   C41       1.0  0.9026260848231332  0.43786420721472896  0.7626043025773097  1.0000
  C   C42       1.0  0.9027193963408052  0.44812419237235246  0.28820658106748037  1.0000
  C   C43       1.0  0.9027218437394061  0.6801959924528558  0.5201918926316367  1.0000
  C   C44       1.0  0.9026235809090991  0.20579084540769801  0.5306190631147549  1.0000
  O   O3        1.0  0.9651864542317099  0.4513806192790542  0.3336920958032714  1.0000
  O   O4        1.0  0.9651118389576453  0.43763936492993555  0.7113171260610277  1.0000
  O   O5        1.0  0.9651883230023152  0.6333253260257228  0.5155674288053714  1.0000
  O   O6        1.0  0.9651099140299317  0.2556946660922681  0.5294416982898704  1.0000
  O   O7        1.0  0.84023371284778  0.6302920497803144  0.5213691442227573  1.0000
  O   O8        1.0  0.8401572291373037  0.4346076490489663  0.7171187719783529  1.0000
  O   O9        1.0  0.8402318447587065  0.4483488578488466  0.3394921803071935  1.0000
  O   O10       1.0  0.8401553045327971  0.25266289539097153  0.5352418801643914  1.0000
