data_image0
_chemical_formula_structural       NC6NC2H4C10H6C6OCH7Zn2C4O8
_chemical_formula_sum              "N2 C29 H17 O9 Zn2"
_cell_length_a       14.927258858638513
_cell_length_b       9.275150299802178
_cell_length_c       9.273891588657152
_cell_angle_alpha    85.74891997062389
_cell_angle_beta     89.68012649256188
_cell_angle_gamma    89.48389287567745

_space_group_name_H-M_alt    "P 1"
_space_group_IT_number       1

loop_
  _space_group_symop_operation_xyz
  'x, y, z'

loop_
  _atom_site_type_symbol
  _atom_site_label
  _atom_site_symmetry_multiplicity
  _atom_site_fract_x
  _atom_site_fract_y
  _atom_site_fract_z
  _atom_site_occupancy
  N   N1        1.0  0.840356667274812  0.5646326302826561  0.4012097572587563  1.0000
  C   C1        1.0  0.7628301762289701  0.5646326018550833  0.4012097680074369  1.0000
  C   C2        1.0  0.6663976682178714  0.5646327165576432  0.4012097175026892  1.0000
  C   C3        1.0  0.6199232177766527  0.5397872044436087  0.2746788088024217  1.0000
  C   C4        1.0  0.526211906759626  0.539787228886937  0.2746786752206314  1.0000
  C   C5        1.0  0.4785816051513444  0.5646325390918403  0.40120973713586916  1.0000
  C   C6        1.0  0.38214903014871426  0.5646326537973128  0.4012096866251813  1.0000
  N   N2        1.0  0.3046225391028727  0.5646326253697398  0.4012096973738619  1.0000
  C   C7        1.0  0.5250559886010312  0.5894780512087869  0.5277406458301968  1.0000
  C   C8        1.0  0.6187672996180584  0.5894780267654587  0.527740779411987  1.0000
  H   H1        1.0  0.6560690726269116  0.5204559940502744  0.17623049973975902  1.0000
  H   H2        1.0  0.49096541603093174  0.5204561916366968  0.17623049368503785  1.0000
  H   H3        1.0  0.4889102004158939  0.6088092522553319  0.6261890630189011  1.0000
  H   H4        1.0  0.6540137894143289  0.6088091623837155  0.6261890704066104  1.0000
  C   C9        1.0  0.07484911154862517  0.14094885288311265  0.4036227078169885  1.0000
  C   C10       1.0  0.12234374024986422  0.22201720959835344  0.29457789751445773  1.0000
  C   C11       1.0  0.1621750817715908  0.15483395393749722  0.179991573067958  1.0000
  C   C12       1.0  0.15491707619910644  0.005603136122194204  0.17297413490269142  1.0000
  C   C13       1.0  0.10938052075656483  0.9230850949312676  0.2813711634562326  1.0000
  C   C14       1.0  0.07013867324866221  0.9883053645249505  0.3988093011387206  1.0000
  C   C15       1.0  0.20968936150756357  0.23962195644499196  0.06845356425306703  1.0000
  C   C16       1.0  0.24947080417438586  0.3106345302392652  0.9750730032386401  1.0000
  C   C17       1.0  0.2960530284070469  0.39379523261378696  0.8657284388179405  1.0000
  C   C18       1.0  0.33582680106554297  0.46480248574015914  0.7723657782006947  1.0000
  H   H5        1.0  0.031564501622178644  0.4053373988576359  0.6325035805986512  1.0000
  H   H6        1.0  0.12664015974080112  0.338485660629382  0.2968045527720653  1.0000
  H   H7        1.0  0.18525897799455357  0.9526581232070522  0.08430839512326815  1.0000
  H   H8        1.0  0.10666272393252063  0.8070288986646685  0.27514838657989626  1.0000
  H   H9        1.0  0.010723094357428582  0.8609238530271743  0.7412644729308762  1.0000
  H   H10       1.0  0.3707514910511762  0.5271528838441486  0.6903856509143913  1.0000
  C   C19       1.0  0.0739827260933133  0.5608060100789245  0.9779623757496805  1.0000
  C   C20       1.0  0.1470073573699131  0.6217458390667792  0.04618990262589029  1.0000
  C   C21       1.0  0.2148906499338995  0.6934592344074022  0.9659727845700811  1.0000
  C   C22       1.0  0.20999147007182584  0.7045943268134065  0.8144689191221692  1.0000
  C   C23       1.0  0.13885376892304502  0.6427808935720456  0.7449041567545436  1.0000
  C   C24       1.0  0.07100506679626739  0.5684481815069564  0.824469605226748  1.0000
  O   O1        1.0  0.28547865349108426  0.7526226681112731  0.04084331015354237  1.0000
  C   C25       1.0  0.3588267980972748  0.8285535100852257  0.9733356091445914  1.0000
  H   H11       1.0  0.8613924459988596  0.4721911794440081  0.08948300457564651  1.0000
  H   H12       1.0  0.26129033243691646  0.7596882303902328  0.7492338190294792  1.0000
  H   H13       1.0  0.13808959585364233  0.6502167956784828  0.6277807409701275  1.0000
  H   H14       1.0  0.9292705046070117  0.5030680566034005  0.5493983576803116  1.0000
  H   H15       1.0  0.33423697949056974  0.9261878596160933  0.9083854200385163  1.0000
  H   H16       1.0  0.3965776786436296  0.7569484065778436  0.9033296923093254  1.0000
  H   H17       1.0  0.40449237229886226  0.8630397532519218  0.05798325213296507  1.0000
  Zn  Zn1       1.0  0.9743337693652652  0.5646288380130617  0.4012180902123317  1.0000
  Zn  Zn2       1.0  0.17064547200054514  0.5646247065238281  0.40121325484639114  1.0000
  C   C26       1.0  0.07159787563980127  0.5612559646311548  0.6644942811053702  1.0000
  C   C27       1.0  0.07338349882639128  0.5679994015708638  0.13793719502531876  1.0000
  C   C28       1.0  0.07104466111347518  0.8280851160699765  0.3939755865122627  1.0000
  C   C29       1.0  0.07393665573098157  0.30116851740077677  0.4084559763097322  1.0000
  O   O2        1.0  0.1476816957348137  0.5704057072039523  0.19162440652134838  1.0000
  O   O3        1.0  0.14629572619792441  0.558845431119698  0.6108029909567643  1.0000
  O   O4        1.0  0.1458479889140667  0.7743133589729634  0.3923572226111167  1.0000
  O   O5        1.0  0.14812936635355056  0.3549377886974765  0.4100700667409547  1.0000
  O   O6        1.0  0.9968498080207283  0.7743157558423255  0.39236127831182777  1.0000
  O   O7        1.0  0.9972975359347909  0.5588495607232382  0.6108069599602304  1.0000
  O   O8        1.0  0.9986835119062764  0.5704097708857387  0.19162664292533416  1.0000
  O   O9        1.0  0.9991311821986022  0.3549418430353857  0.410072411265042  1.0000
