data_image0
_chemical_formula_structural       NC9NC5H8C8H10C6NCH7Zn2C4O8
_chemical_formula_sum              "N3 C33 H25 Zn2 O8"
_cell_length_a       17.807436237873137
_cell_length_b       9.275653711864159
_cell_length_c       9.273390368590327
_cell_angle_alpha    86.35028473640597
_cell_angle_beta     89.39974432744097
_cell_angle_gamma    87.8440138982238

_space_group_name_H-M_alt    "P 1"
_space_group_IT_number       1

loop_
  _space_group_symop_operation_xyz
  'x, y, z'

loop_
  _atom_site_type_symbol
  _atom_site_label
  _atom_site_symmetry_multiplicity
  _atom_site_fract_x
  _atom_site_fract_y
  _atom_site_fract_z
  _atom_site_occupancy
  N   N1        1.0  0.6999530120666956  0.5241046606333746  0.40367684190918807  1.0000
  C   C1        1.0  0.6395617753459466  0.48489612756451567  0.3913140619913409  1.0000
  C   C2        1.0  0.5644417143835966  0.43612503009532483  0.37593610630775887  1.0000
  C   C3        1.0  0.5467611111772589  0.35557983406542193  0.25913930899564597  1.0000
  C   C4        1.0  0.47382403108142057  0.30810206270031437  0.24411619690675534  1.0000
  C   C5        1.0  0.41752092867377166  0.3407498541490914  0.34585249351725245  1.0000
  C   C6        1.0  0.3400069664877869  0.2904217949205383  0.3299783234812008  1.0000
  C   C7        1.0  0.2773745175633077  0.38151869788741344  0.3590637394946459  1.0000
  C   C8        1.0  0.20429625353808387  0.3338156119239468  0.34405507339111163  1.0000
  C   C9        1.0  0.14059877435215143  0.4279055798057329  0.3735541486633347  1.0000
  N   N2        1.0  0.08939902180306622  0.5035474173529508  0.3972705776559087  1.0000
  C   C10       1.0  0.19326832427605528  0.19472883469504554  0.29993191921624063  1.0000
  C   C11       1.0  0.2550434812585205  0.10361644969049323  0.2708371415619908  1.0000
  C   C12       1.0  0.3280045259870698  0.15087900572099522  0.2856195867443172  1.0000
  C   C13       1.0  0.435890169021793  0.4218466339867679  0.46289439934326504  1.0000
  C   C14       1.0  0.5088811969666684  0.46911113521182934  0.47774407066836044  1.0000
  H   H1        1.0  0.5892912005576365  0.3297642319145515  0.17946730015116197  1.0000
  H   H2        1.0  0.4612208854009993  0.24750967250035205  0.15189194965427988  1.0000
  H   H3        1.0  0.2853285585917951  0.4900949181457354  0.39146711153982183  1.0000
  H   H4        1.0  0.13699314738744  0.15680653794921184  0.28804950123615236  1.0000
  H   H5        1.0  0.24638674047832082  0.9959368047456991  0.23710447574864493  1.0000
  H   H6        1.0  0.3750118619606949  0.07764388938043211  0.2642397994970913  1.0000
  H   H7        1.0  0.39407974639776  0.4470788792297491  0.5440011458566816  1.0000
  H   H8        1.0  0.5220060981061431  0.5310467168362747  0.5688167064617757  1.0000
  C   C15       1.0  0.8967888645619079  0.09031110367153918  0.3990939440605161  1.0000
  C   C16       1.0  0.8791702088518075  0.1732815587502592  0.2708370478551103  1.0000
  C   C17       1.0  0.8547752703674806  0.10803600008516946  0.14826978910392974  1.0000
  C   C18       1.0  0.8491169244114511  0.9577898836787292  0.1529682974754185  1.0000
  C   C19       1.0  0.8675468967944806  0.8735596304966827  0.2784341453397512  1.0000
  C   C20       1.0  0.8925703922449341  0.9373296301827937  0.4018658045829082  1.0000
  C   C21       1.0  0.837193075724846  0.1982933830910989  0.011226592475646942  1.0000
  C   C22       1.0  0.9074996147905622  0.21543586236634302  0.9173176357963847  1.0000
  H   H9        1.0  0.9649759604545666  0.35337784918311055  0.5977489573253998  1.0000
  H   H10       1.0  0.8827688135190999  0.28986904075395037  0.2668947213274975  1.0000
  H   H11       1.0  0.8311351219986713  0.9054939379927858  0.058722198993711894  1.0000
  H   H12       1.0  0.8640719818493888  0.7572625924992457  0.27761149614061  1.0000
  H   H13       1.0  0.8996094568327784  0.6403756904412509  0.6394326715414633  1.0000
  H   H14       1.0  0.7933930912820722  0.14705922698267293  0.9492717002085476  1.0000
  H   H15       1.0  0.8143838861682428  0.30693215905792837  0.037148885621253847  1.0000
  H   H16       1.0  0.9512836458322819  0.2699532644490057  0.9761035568703957  1.0000
  H   H17       1.0  0.9300594378760676  0.10802347301763637  0.8872881376337203  1.0000
  H   H18       1.0  0.8933407632774277  0.2821736662666241  0.816952492672884  1.0000
  C   C23       1.0  0.8947368607192437  0.5093211725237798  0.97721882590997  1.0000
  C   C24       1.0  0.9637697466331973  0.5028123997995426  0.04967661055649564  1.0000
  C   C25       1.0  0.031532021804593136  0.5097739367004098  0.97318079755278  1.0000
  C   C26       1.0  0.03198247846878945  0.5235440042784933  0.821589421219937  1.0000
  C   C27       1.0  0.9634197395152817  0.5275964011795219  0.7483065407405984  1.0000
  C   C28       1.0  0.8946224212731914  0.5183196223183988  0.8237409415415944  1.0000
  N   N3        1.0  0.10100658374611937  0.5320990581943659  0.7397046667779277  1.0000
  C   C29       1.0  0.17520122982359765  0.5283525708218433  0.805472940071494  1.0000
  H   H19       1.0  0.7764717232289825  0.44630517797106  0.2647831925462054  1.0000
  H   H20       1.0  0.08331440750890384  0.5057138343053633  0.033445772059734535  1.0000
  H   H21       1.0  0.7200529131993095  0.4155197309748839  0.7307639560913408  1.0000
  H   H22       1.0  0.0985207440559257  0.5417858756056764  0.6269002202856058  1.0000
  H   H23       1.0  0.17961746094935882  0.62061083505766  0.8751640094608995  1.0000
  H   H24       1.0  0.18488099355018672  0.424777571116552  0.8705387297867061  1.0000
  H   H25       1.0  0.2191853766244155  0.5369308275557474  0.7198936414441683  1.0000
  Zn  Zn1       1.0  0.812338734825427  0.5181685246499508  0.4018364556638645  1.0000
  Zn  Zn2       1.0  0.9770133377945976  0.5094719232188691  0.39912277483259917  1.0000
  C   C30       1.0  0.8946709751836753  0.5108733568638284  0.6637113684854312  1.0000
  C   C31       1.0  0.8946828865959536  0.5167688172491645  0.13724797980098846  1.0000
  C   C32       1.0  0.8933646879320585  0.7771642768631568  0.39559830296787246  1.0000
  C   C33       1.0  0.8959891262749078  0.25047616829920893  0.40536111741838976  1.0000
  O   O1        1.0  0.9571579573408696  0.5159617080588681  0.1899253774078753  1.0000
  O   O2        1.0  0.957180123256129  0.5050788543893638  0.6089739314456093  1.0000
  O   O3        1.0  0.9561244371399492  0.7201122004181286  0.39247075288596456  1.0000
  O   O4        1.0  0.958213587227992  0.300928374165788  0.4064284488563157  1.0000
  O   O5        1.0  0.8311384291966653  0.7267120766722448  0.39453078255861773  1.0000
  O   O6        1.0  0.8321941066901409  0.5116804625633189  0.6110338899368897  1.0000
  O   O7        1.0  0.8321719413094658  0.5225632475522091  0.19198360281833748  1.0000
  O   O8        1.0  0.8332275712302787  0.3075299044926574  0.4084867822964524  1.0000
