data_image0
_chemical_formula_structural       NC11NC3H8C12ClH9C12NH11Zn2C4O8
_chemical_formula_sum              "N3 C42 H28 Cl1 Zn2 O8"
_cell_length_a       17.807433833752565
_cell_length_b       10.299768534541528
_cell_length_c       10.299774167527174
_cell_angle_alpha    85.57901690489705
_cell_angle_beta     88.5175958409119
_cell_angle_gamma    90.7030232555817

_space_group_name_H-M_alt    "P 1"
_space_group_IT_number       1

loop_
  _space_group_symop_operation_xyz
  'x, y, z'

loop_
  _atom_site_type_symbol
  _atom_site_label
  _atom_site_symmetry_multiplicity
  _atom_site_fract_x
  _atom_site_fract_y
  _atom_site_fract_z
  _atom_site_occupancy
  N   N1        1.0  0.7077765262123797  0.4380318284486773  0.5347609127973929  1.0000
  C   C1        1.0  0.6569462291806547  0.40332507970375003  0.6013192061965609  1.0000
  C   C2        1.0  0.5937082151376899  0.3601527441991652  0.6841092293754945  1.0000
  C   C3        1.0  0.605415471596862  0.29663935753260096  0.8068201824051209  1.0000
  C   C4        1.0  0.5440853128604334  0.25514610801465176  0.8873264281167603  1.0000
  C   C5        1.0  0.4708934497717191  0.2768531687683704  0.8457624779366448  1.0000
  C   C6        1.0  0.45820945891001863  0.3405209693815039  0.7225913537218973  1.0000
  C   C7        1.0  0.3804498064373358  0.3635573157896348  0.6782469193729161  1.0000
  C   C8        1.0  0.36167159253268727  0.3466468038165699  0.5486723169162302  1.0000
  C   C9        1.0  0.2884497826095727  0.368315123810246  0.5070642963336713  1.0000
  C   C10       1.0  0.2330632258809541  0.4072122377634267  0.594210651375237  1.0000
  C   C11       1.0  0.15770490638928766  0.4295386143693598  0.5512414182656591  1.0000
  N   N2        1.0  0.0971221904462657  0.4474873624745266  0.5166972821369711  1.0000
  C   C12       1.0  0.251149950330351  0.4243331676782738  0.7232541504935437  1.0000
  C   C13       1.0  0.3243189752717838  0.4026299936752067  0.765117587302719  1.0000
  C   C14       1.0  0.5203969276050265  0.3820096588692343  0.6421015229381262  1.0000
  H   H1        1.0  0.6618758319212745  0.27923490803795814  0.8401836857361343  1.0000
  H   H2        1.0  0.5532679897960281  0.2057223041301972  0.982056785593265  1.0000
  H   H3        1.0  0.4242435928920504  0.2423162201945697  0.9091976409851755  1.0000
  H   H4        1.0  0.4033485668346034  0.3149848722578204  0.4799582824564033  1.0000
  H   H5        1.0  0.2750122827391879  0.35440486230723867  0.4070341999172625  1.0000
  H   H6        1.0  0.20875599879761028  0.45477193068710203  0.7914534099548362  1.0000
  H   H7        1.0  0.33722834221115455  0.41808559658034744  0.8649649774011794  1.0000
  H   H8        1.0  0.5119129662092289  0.43279587276202713  0.5476055049520581  1.0000
  C   C15       1.0  0.9023820915149243  0.06139256537649063  0.525730072748213  1.0000
  C   C16       1.0  0.9073392769702319  0.07103887133533185  0.3890374990423169  1.0000
  C   C17       1.0  0.9099233461234023  0.9587891202278196  0.31977832252418437  1.0000
  C   C18       1.0  0.9074827615763845  0.8357546430222386  0.38904633131312516  1.0000
  C   C19       1.0  0.9025238087792344  0.8241167650866628  0.5257389249679858  1.0000
  C   C20       1.0  0.9000017974201664  0.9374933055776044  0.5933152905543402  1.0000
  C   C21       1.0  0.9151686339787778  0.9700477998443022  0.17516892844952303  1.0000
  C   C22       1.0  0.8724339988182617  0.0625283316273908  0.10269125766741327  1.0000
  C   C23       1.0  0.8774379499180545  0.07293115476062305  0.9665856651920919  1.0000
  C   C24       1.0  0.9251041005191677  0.9913733285634244  0.9012693249394365  1.0000
  C   C25       1.0  0.9678265260008668  0.8992043041660085  0.9722364118909312  1.0000
  C   C26       1.0  0.9629559877483888  0.88841247408388  0.10835045726306447  1.0000
  Cl  Cl1       1.0  0.9312985927884855  0.004669225884454955  0.7305048556452891  1.0000
  H   H9        1.0  0.9004546127792156  0.3851696611655666  0.5778152076203331  1.0000
  H   H10       1.0  0.910239272244171  0.16610629655963408  0.3361728145307566  1.0000
  H   H11       1.0  0.90842219494268  0.7489282368979813  0.3360590616721315  1.0000
  H   H12       1.0  0.8961767961838965  0.9292834173828504  0.6987673541227559  1.0000
  H   H13       1.0  0.9006641277506827  0.492229170818304  0.5778287149864096  1.0000
  H   H14       1.0  0.8344458514817717  0.12559530912204922  0.15119501162070126  1.0000
  H   H15       1.0  0.8440859265614375  0.1442187396184138  0.912023879493867  1.0000
  H   H16       1.0  0.0049769503181145164  0.8360698744128976  0.9220821246131737  1.0000
  H   H17       1.0  0.9972614331706475  0.8174409172130912  0.16137377324384672  1.0000
  C   C27       1.0  0.9024784859260724  0.4426407874481111  0.1443812436867591  1.0000
  C   C28       1.0  0.8288918868786618  0.3915522435017271  0.15061505622881  1.0000
  C   C29       1.0  0.7915786920422805  0.36578045225451256  0.03662718082792127  1.0000
  C   C30       1.0  0.8288403171108324  0.3917822901395065  0.9153127424609188  1.0000
  C   C31       1.0  0.9024273936282393  0.44286861920363646  0.907087763359653  1.0000
  C   C32       1.0  0.9388342897589246  0.4680122901312334  0.022160327436264945  1.0000
  C   C33       1.0  0.7137283352014427  0.3117323004525381  0.04427554186020011  1.0000
  C   C34       1.0  0.6925963451530547  0.21276608291369528  0.1405527027345126  1.0000
  C   C35       1.0  0.6193201102982516  0.16195140153437862  0.14761779823388754  1.0000
  C   C36       1.0  0.566016715196768  0.2091821490195205  0.05878719133634913  1.0000
  C   C37       1.0  0.5866528783659626  0.3077461677549949  0.9626923911094515  1.0000
  C   C38       1.0  0.6599065732987128  0.3586615627093783  0.9553620633005663  1.0000
  N   N3        1.0  0.49107212178646453  0.15715090907376572  0.0661498666021525  1.0000
  H   H18       1.0  0.9305311160456629  0.4620545061408494  0.4694628829487726  1.0000
  H   H19       1.0  0.8000456340881308  0.3733487030368535  0.2442387059430371  1.0000
  H   H20       1.0  0.8007009603631758  0.37042353793944804  0.8272874325631784  1.0000
  H   H21       1.0  0.99560312587842  0.5074238668068627  0.016583233371023187  1.0000
  H   H22       1.0  0.9304561392713433  0.46238963230597996  0.5764965907485924  1.0000
  H   H23       1.0  0.7330010691852191  0.1734795050587763  0.2093271292227112  1.0000
  H   H24       1.0  0.6041509607137436  0.08553702239397022  0.2221383761493021  1.0000
  H   H25       1.0  0.5459342198394429  0.34535982568648876  0.8936624427064804  1.0000
  H   H26       1.0  0.6741976284715706  0.4359211039712454  0.8812142599666939  1.0000
  H   H27       1.0  0.4509454068096936  0.19173251709422923  0.0003477248747367759  1.0000
  H   H28       1.0  0.4751596581327972  0.0836637231798363  0.13745785534534782  1.0000
  Zn  Zn1       1.0  0.8201332732330225  0.4407570189306829  0.529555623356132  1.0000
  Zn  Zn2       1.0  0.984765425983067  0.4447515556124222  0.5219131570338567  1.0000
  C   C39       1.0  0.9024344233718219  0.4376518327151145  0.7629199465422962  1.0000
  C   C40       1.0  0.9024660739181646  0.44785842409811727  0.28854887787253936  1.0000
  C   C41       1.0  0.9024934945341105  0.6799440514374129  0.5205625089122119  1.0000
  C   C42       1.0  0.9024069462838983  0.20556464373823327  0.5309063873280515  1.0000
  O   O1        1.0  0.964938951263237  0.4511197507599274  0.33403257668653574  1.0000
  O   O2        1.0  0.9649135404783338  0.43742128713793177  0.71163541878219  1.0000
  O   O3        1.0  0.9649603988780696  0.633075297927679  0.5159301122902462  1.0000
  O   O4        1.0  0.9648920366939467  0.2554657478682114  0.5297377884157681  1.0000
  O   O5        1.0  0.8400066063412699  0.6300428253131665  0.5217309945753883  1.0000
  O   O6        1.0  0.839959748232638  0.4343903747992764  0.7174362318430723  1.0000
  O   O7        1.0  0.8399851591636637  0.4480887927004047  0.33983182840790405  1.0000
  O   O8        1.0  0.8399382445830545  0.25243478054893  0.5355371375010156  1.0000
