data_image0
_chemical_formula_structural       NC8NH4C6ClH5C7NH3Zn2C4O8
_chemical_formula_sum              "N3 C25 H12 Cl1 Zn2 O8"
_cell_length_a       13.859017981522156
_cell_length_b       9.276545438789551
_cell_length_c       9.275157849593905
_cell_angle_alpha    86.141431454383
_cell_angle_beta     89.7408760017346
_cell_angle_gamma    89.4096370293992

_space_group_name_H-M_alt    "P 1"
_space_group_IT_number       1

loop_
  _space_group_symop_operation_xyz
  'x, y, z'

loop_
  _atom_site_type_symbol
  _atom_site_label
  _atom_site_symmetry_multiplicity
  _atom_site_fract_x
  _atom_site_fract_y
  _atom_site_fract_z
  _atom_site_occupancy
  N   N1        1.0  0.9026201690222401  0.5627584328624327  0.4112886485353333  1.0000
  C   C1        1.0  0.8305036914455767  0.5551382787626826  0.3499846528475452  1.0000
  C   C2        1.0  0.7407950345418156  0.5456601760880304  0.27373045937989526  1.0000
  C   C3        1.0  0.7411901177477639  0.5271769739709145  0.1250310409651061  1.0000
  C   C4        1.0  0.6540450903868876  0.5179733665255626  0.050978419584252414  1.0000
  C   C5        1.0  0.5663248306825988  0.5271786937591498  0.12503079373360748  1.0000
  C   C6        1.0  0.5655647915064652  0.545661147487952  0.27373027620310997  1.0000
  C   C7        1.0  0.6528912485352416  0.5549006964065302  0.3480688399032996  1.0000
  C   C8        1.0  0.4752638691873991  0.5551391801121399  0.349984413007699  1.0000
  N   N2        1.0  0.4026712514835314  0.562758745412907  0.4112885551367571  1.0000
  H   H1        1.0  0.8087128568753467  0.519903707324908  0.06651938821606262  1.0000
  H   H2        1.0  0.6544911811443622  0.5036961470621113  0.9361145173279986  1.0000
  H   H3        1.0  0.49925656707726035  0.5199068007069307  0.06651897017585795  1.0000
  H   H4        1.0  0.6524442444749273  0.5692067170982495  0.46316626795348653  1.0000
  C   C9        1.0  0.1555631596977478  0.139321173904984  0.41105103134329507  1.0000
  C   C10       1.0  0.1563305620840687  0.22169157528579533  0.27803460445831996  1.0000
  C   C11       1.0  0.14831076106055008  0.15535899334970704  0.14791330549882842  1.0000
  C   C12       1.0  0.13933038689254085  0.00577644740238958  0.14880654918249192  1.0000
  C   C13       1.0  0.1400590196754492  0.9218441177088298  0.2793814575854894  1.0000
  C   C14       1.0  0.14973756296091323  0.9861850936329286  0.4115386330268924  1.0000
  Cl  Cl1       1.0  0.1480605987393247  0.260395865181958  0.983386968407236  1.0000
  H   H5        1.0  0.20422654256511064  0.4044623444965083  0.6376256486020089  1.0000
  H   H6        1.0  0.16086039444357408  0.338384664589078  0.27518135000772515  1.0000
  H   H7        1.0  0.13270381071283843  0.9540853051267901  0.048136942648510546  1.0000
  H   H8        1.0  0.13534979006157677  0.8055581269736827  0.27673144582652776  1.0000
  H   H9        1.0  0.11668757391168016  0.6896938404345463  0.6445736962142556  1.0000
  C   C15       1.0  0.15395870785847632  0.5586772689009074  0.9880947085316811  1.0000
  C   C16       1.0  0.236800933871457  0.6056844891783921  0.057817788643579344  1.0000
  C   C17       1.0  0.3146155458550055  0.6640302071060042  0.9779732006344131  1.0000
  C   C18       1.0  0.31049337478342265  0.6762962808499728  0.8273213166325597  1.0000
  C   C19       1.0  0.22964294364803972  0.6281214212944755  0.756256021984381  1.0000
  C   C20       1.0  0.15134201856510737  0.5668289206969437  0.834494972989615  1.0000
  C   C21       1.0  0.39838966082780525  0.7130455234668975  0.05100502887160174  1.0000
  N   N3        1.0  0.46572260326255144  0.7524406212422332  0.1097102956987832  1.0000
  H   H10       1.0  0.9195248783879002  0.5100591668682701  0.0959043727102642  1.0000
  H   H11       1.0  0.37026327520262736  0.7219071500755061  0.7645247688059431  1.0000
  H   H12       1.0  0.2293773377594126  0.6357023638342565  0.6391959470577753  1.0000
  Zn  Zn1       1.0  0.046924116485773444  0.5627547526696106  0.41129693780024734  1.0000
  Zn  Zn2       1.0  0.25836735120083487  0.5627507742310376  0.4112920504507487  1.0000
  C   C22       1.0  0.15187396893454014  0.5595437302042638  0.6745038671368286  1.0000
  C   C23       1.0  0.15341979475274736  0.5659636173899112  0.14808526355617802  1.0000
  C   C24       1.0  0.15085149384421384  0.8260544438612898  0.40570363463790926  1.0000
  C   C25       1.0  0.1544422093721361  0.2994511720556421  0.41688557189251685  1.0000
  O   O1        1.0  0.23348057949434403  0.568401181981919  0.20177769700856896  1.0000
  O   O2        1.0  0.23229371564380608  0.5571020542789102  0.6208073088208717  1.0000
  O   O3        1.0  0.23146696774944409  0.7723128404973729  0.4037492201599977  1.0000
  O   O4        1.0  0.23430725550055764  0.3531904050391519  0.4188356776216491  1.0000
  O   O5        1.0  0.0709841400308646  0.7723151218643511  0.4037533106234356  1.0000
  O   O6        1.0  0.07181087624097793  0.5571060673259856  0.6208113234409784  1.0000
  O   O7        1.0  0.07299774585802865  0.5684051280935474  0.20177997893374044  1.0000
  O   O8        1.0  0.07382442159720459  0.35319434187793863  0.41883806758870334  1.0000
