data_image0
_chemical_formula_structural       NC5NC4H6C12H10C12H10Zn2C4O8
_chemical_formula_sum              "N2 C37 H26 Zn2 O8"
_cell_length_a       13.854160002989762
_cell_length_b       14.38812564980172
_cell_length_c       14.389300134226545
_cell_angle_alpha    85.2703182299558
_cell_angle_beta     90.22201772561286
_cell_angle_gamma    91.20505713478563

_space_group_name_H-M_alt    "P 1"
_space_group_IT_number       1

loop_
  _space_group_symop_operation_xyz
  'x, y, z'

loop_
  _atom_site_type_symbol
  _atom_site_label
  _atom_site_symmetry_multiplicity
  _atom_site_fract_x
  _atom_site_fract_y
  _atom_site_fract_z
  _atom_site_occupancy
  N   N1        1.0  0.9280193380047091  0.05738064194595441  0.01009980054268478  1.0000
  C   C1        1.0  0.8559245148337149  0.07519308021094553  0.9725342795178696  1.0000
  C   C2        1.0  0.7662375417081405  0.0973522546152212  0.9258013261880919  1.0000
  C   C3        1.0  0.678393527387233  0.07644879696326055  0.971459477534071  1.0000
  C   C4        1.0  0.5910951294928872  0.0973522644543667  0.9258013115527877  1.0000
  C   C5        1.0  0.5008163715718299  0.07519298307471403  0.9725343351933378  1.0000
  N   N2        1.0  0.4282457665097462  0.05738060116361887  0.010099798952191938  1.0000
  C   C6        1.0  0.5916819842518958  0.13954815900795037  0.8345119287621559  1.0000
  C   C7        1.0  0.6795234314743748  0.16183549846696416  0.7888388614333253  1.0000
  C   C8        1.0  0.6800580292859333  0.20450121651735612  0.6901274153696622  1.0000
  C   C9        1.0  0.7667590730879903  0.13954816063140532  0.8345118703632657  1.0000
  H   H1        1.0  0.6779630460134292  0.043718504861722574  0.04211309557394395  1.0000
  H   H2        1.0  0.5240052920368755  0.1550673008735972  0.7990597419707552  1.0000
  H   H3        1.0  0.7458274898446204  0.2489335078210804  0.6763959998560638  1.0000
  H   H4        1.0  0.6161190123428419  0.2489335072424848  0.6763960419801992  1.0000
  H   H5        1.0  0.6786359729164927  0.1483179793826782  0.6416784610752759  1.0000
  H   H6        1.0  0.834828252536694  0.15506737546463728  0.7990596894590167  1.0000
  C   C10       1.0  0.17214620633316402  0.7853521265597515  0.9998734768779964  1.0000
  C   C11       1.0  0.12397686753706205  0.8175615664522405  0.9176792248853904  1.0000
  C   C12       1.0  0.08826954735128667  0.7545686734726792  0.856569649729795  1.0000
  C   C13       1.0  0.10007432390034743  0.6588958261722803  0.8765638372760917  1.0000
  C   C14       1.0  0.1479128550754385  0.6249471045995992  0.9583557224187649  1.0000
  C   C15       1.0  0.16039154761307098  0.5231268689961595  0.9797301106434817  1.0000
  C   C16       1.0  0.1848986790746858  0.4661798147937348  0.908950538595974  1.0000
  C   C17       1.0  0.19668269259278492  0.37037296916523504  0.92905272320527  1.0000
  C   C18       1.0  0.18412799071534558  0.32940161413198116  0.02033391842671307  1.0000
  C   C19       1.0  0.1595562211315533  0.38625012136858683  0.0911561807062044  1.0000
  C   C20       1.0  0.14784957934400467  0.4820644529851846  0.07106585516561359  1.0000
  C   C21       1.0  0.18378273344429497  0.6888601881710672  0.019653063535550307  1.0000
  H   H7        1.0  0.2842957641585375  0.8644355388673062  0.19102922383918441  1.0000
  H   H8        1.0  0.11385403091361088  0.8914243343154632  0.9005636834811981  1.0000
  H   H9        1.0  0.0510434110795912  0.77999792746153  0.7935521825951479  1.0000
  H   H10       1.0  0.07065460641349408  0.611372031775905  0.8286691477315977  1.0000
  H   H11       1.0  0.19623338295717424  0.49593706997276393  0.838143195272623  1.0000
  H   H12       1.0  0.21587570715853865  0.3284947188665999  0.8730184393565811  1.0000
  H   H13       1.0  0.22964547240136804  0.1026691459071526  0.9842059505485647  1.0000
  H   H14       1.0  0.14910253874285329  0.35669683026441695  0.16216384904768577  1.0000
  H   H15       1.0  0.12769311237367065  0.5238658364711466  0.1268540808598213  1.0000
  H   H16       1.0  0.2219368801954775  0.6633621852052952  0.08215490197950584  1.0000
  C   C22       1.0  0.17728843379889042  0.06898044515148083  0.7364149514825044  1.0000
  C   C23       1.0  0.23104532743748596  0.12385592619964769  0.6689355508410222  1.0000
  C   C24       1.0  0.2326637653651964  0.10095870455827874  0.5764297692823264  1.0000
  C   C25       1.0  0.18062919662453517  0.022673368903639118  0.5493779146467455  1.0000
  C   C26       1.0  0.1269494067839001  0.9678114036400648  0.6169502684970394  1.0000
  C   C27       1.0  0.1252658625230656  0.9907502172568734  0.7094452508111915  1.0000
  C   C28       1.0  0.18237662812553318  0.9982998965266204  0.4510796577723819  1.0000
  C   C29       1.0  0.17728835801214776  0.06840392206673834  0.37707647489167817  1.0000
  C   C30       1.0  0.17898575830223912  0.045773304072959535  0.28379248071931973  1.0000
  C   C31       1.0  0.18587029095540286  0.9518452657930032  0.26515151073977405  1.0000
  C   C32       1.0  0.19089751107159758  0.8819730507884119  0.33820901527983516  1.0000
  C   C33       1.0  0.18914420918155095  0.9048190880381458  0.4305890039365238  1.0000
  H   H17       1.0  0.12007706038882526  0.05393312394243629  0.9680528261778694  1.0000
  H   H18       1.0  0.2721346962146638  0.18444052695030633  0.6876075424876662  1.0000
  H   H19       1.0  0.2757335335903677  0.14386620569457098  0.5262667076077422  1.0000
  H   H20       1.0  0.08515404921043876  0.907757498526959  0.5980299865400521  1.0000
  H   H21       1.0  0.08295777369112843  0.9472362214023475  0.7597386356737675  1.0000
  H   H22       1.0  0.17067607765765347  0.14049274617366134  0.39223014909157095  1.0000
  H   H23       1.0  0.17098925462777156  0.14649393820066525  0.06039583406173544  1.0000
  H   H24       1.0  0.1873882789277439  0.9322401957544955  0.19413094971316225  1.0000
  H   H25       1.0  0.19644522716251658  0.8098002593468864  0.32316067583472274  1.0000
  H   H26       1.0  0.1943795883189041  0.8494835028960739  0.486012696073844  1.0000
  Zn  Zn1       1.0  0.07237384742586328  0.057377921642110224  0.010105094716913683  1.0000
  Zn  Zn2       1.0  0.28389111505209264  0.057375416532285534  0.010101873965752461  1.0000
  C   C34       1.0  0.1785815177539667  0.046469607812803085  0.18018760604367684  1.0000
  C   C35       1.0  0.1776857805109444  0.06828489527412682  0.8400194980364859  1.0000
  C   C36       1.0  0.18184670860720836  0.22672216044610705  0.012752521345729462  1.0000
  C   C37       1.0  0.17442049312470176  0.8880312275799044  0.007454590568816037  1.0000
  O   O1        1.0  0.2580887454260088  0.06804647036353464  0.8747887560553058  1.0000
  O   O2        1.0  0.25871524856825245  0.04670544394708575  0.14541560897785152  1.0000
  O   O3        1.0  0.2613508524073098  0.19226161872915648  0.010210629693529379  1.0000
  O   O4        1.0  0.2554530693396861  0.9224903051717119  0.00999366570917548  1.0000
  O   O5        1.0  0.10081182095781456  0.19226303300475509  0.01021330296972534  1.0000
  O   O6        1.0  0.09817624147130233  0.04670797328567457  0.14541827441589894  1.0000
  O   O7        1.0  0.097549734207681  0.06804901492860257  0.8747902997427874  1.0000
  O   O8        1.0  0.09491405818816823  0.9224928401486038  0.009995279023344518  1.0000
