data_image0
_chemical_formula_structural       NC10NC3NH7C7OC3NC3H11C6NCOC6H11Zn2C4O8
_chemical_formula_sum              "N5 C43 H29 O10 Zn2"
_cell_length_a       19.210446455230148
_cell_length_b       10.298746005989749
_cell_length_c       10.299662537453274
_cell_angle_alpha    85.54306763902352
_cell_angle_beta     89.97714991374127
_cell_angle_gamma    89.95621662588982

_space_group_name_H-M_alt    "P 1"
_space_group_IT_number       1

loop_
  _space_group_symop_operation_xyz
  'x, y, z'

loop_
  _atom_site_type_symbol
  _atom_site_label
  _atom_site_symmetry_multiplicity
  _atom_site_fract_x
  _atom_site_fract_y
  _atom_site_fract_z
  _atom_site_occupancy
  N   N1        1.0  0.6557688096719884  0.42084884197916944  0.5674507535881834  1.0000
  C   C1        1.0  0.5955402446073934  0.42305642240819474  0.5676821416643488  1.0000
  C   C2        1.0  0.5207357855709878  0.42579341797483594  0.5679688028414068  1.0000
  C   C3        1.0  0.48512369732524013  0.5420261867282983  0.5830932568396725  1.0000
  C   C4        1.0  0.4124582236297034  0.5421777552974272  0.5830406749864172  1.0000
  C   C5        1.0  0.3755690240363935  0.4265024008509195  0.5680553631965342  1.0000
  C   C6        1.0  0.2982469081708567  0.4251458885130432  0.5679046237029939  1.0000
  C   C7        1.0  0.2604995548730818  0.5287487036418559  0.5045530809028307  1.0000
  C   C8        1.0  0.18772120844754236  0.5273464165899451  0.5044438548213329  1.0000
  C   C9        1.0  0.151688810105265  0.4225988624399455  0.5676352016338745  1.0000
  C   C10       1.0  0.0767593021470721  0.42129674256193006  0.5674982314481629  1.0000
  N   N2        1.0  0.016521459550980593  0.42024979395438694  0.5673881422904797  1.0000
  C   C11       1.0  0.18871250875651696  0.3191217585475361  0.6309617491036517  1.0000
  C   C12       1.0  0.26149269836386296  0.3202497384270617  0.6311211923226896  1.0000
  C   C13       1.0  0.41379094721714355  0.31208990303617196  0.5532192728081138  1.0000
  N   N3        1.0  0.48456088092209443  0.3145349851243935  0.5533850998762457  1.0000
  H   H1        1.0  0.513223532136755  0.6314613518417869  0.5951514313565053  1.0000
  H   H2        1.0  0.3851880973184208  0.6321942755981456  0.5964936540056083  1.0000
  H   H3        1.0  0.2872320503286274  0.6100279346559365  0.45357047369701287  1.0000
  H   H4        1.0  0.1595798751927312  0.6077973585469658  0.45479157024615113  1.0000
  H   H5        1.0  0.1613405195871388  0.2377073910789913  0.6805144444522573  1.0000
  H   H6        1.0  0.2889890127353401  0.23991742256922222  0.6822112352587191  1.0000
  H   H7        1.0  0.3875268836209121  0.22121041932865082  0.5397199536731339  1.0000
  C   C14       1.0  0.8361151979878594  0.03914730905924045  0.5674022847475658  1.0000
  C   C15       1.0  0.8686936297203856  0.04764641538854208  0.4448910914346448  1.0000
  C   C16       1.0  0.8844349660108366  0.9348220833412365  0.38225462576743574  1.0000
  C   C17       1.0  0.8686941578050248  0.8124098329109106  0.4448419537329811  1.0000
  C   C18       1.0  0.8361817081582692  0.8019413734359523  0.5674478282873796  1.0000
  C   C19       1.0  0.8199309932106245  0.9158761336033151  0.6277955765954988  1.0000
  C   C20       1.0  0.9194290778850913  0.9436043662287807  0.25343168487318457  1.0000
  O   O1        1.0  0.961933852360875  0.855565490682726  0.22821179087880375  1.0000
  C   C21       1.0  0.9062056794971743  0.05220242288660782  0.15322724097384022  1.0000
  C   C22       1.0  0.840294166035489  0.11170860105403045  0.14113110615727842  1.0000
  C   C23       1.0  0.8281084386566948  0.21343665674682244  0.0452254252761608  1.0000
  N   N4        1.0  0.7610825136286415  0.2737865334848555  0.03403286942851503  1.0000
  C   C24       1.0  0.8818774485400096  0.2552665427433283  0.960081050048385  1.0000
  C   C25       1.0  0.9471538005891902  0.19559736686864015  0.9703212046044434  1.0000
  C   C26       1.0  0.9592854215076856  0.09429399177706244  0.06592268384418576  1.0000
  H   H8        1.0  0.7755232111223848  0.230381424749517  0.7997507665468081  1.0000
  H   H9        1.0  0.8825421991365708  0.1421579435871161  0.39866642058313256  1.0000
  H   H10       1.0  0.8812543466675264  0.7252156894565703  0.39714140933179  1.0000
  H   H11       1.0  0.794822335419696  0.9085727740535664  0.7222314153464092  1.0000
  H   H12       1.0  0.7750113096422948  0.5748426602373922  0.7993078797915786  1.0000
  H   H13       1.0  0.7981315949714786  0.07834998662123871  0.20510168763984307  1.0000
  H   H14       1.0  0.7206298861395956  0.24337551320557946  0.09699168232361922  1.0000
  H   H15       1.0  0.7514347008319003  0.3494452300454005  0.9627954360324302  1.0000
  H   H16       1.0  0.8731143680056015  0.3336612084947366  0.8855946873639704  1.0000
  H   H17       1.0  0.9884637772835128  0.22792268445467312  0.904018437842462  1.0000
  H   H18       1.0  0.01033717180353877  0.049564787682020654  0.07244144278810993  1.0000
  C   C27       1.0  0.8361963879715111  0.4206847904117077  0.18604908141980414  1.0000
  C   C28       1.0  0.9072574098723258  0.4529441174934465  0.1822246974322337  1.0000
  C   C29       1.0  0.9432592836553574  0.46731064022640867  0.063614646161271  1.0000
  C   C30       1.0  0.9071355784820949  0.4526342201625033  0.9470814034811528  1.0000
  C   C31       1.0  0.836100548796337  0.4204038566845445  0.9488010375873692  1.0000
  C   C32       1.0  0.8010914002147123  0.4041664360772754  0.06885316830291988  1.0000
  N   N5        1.0  0.015748614208950684  0.5022788352233836  0.06312058515123398  1.0000
  C   C33       1.0  0.06501087289332874  0.46234361188781037  0.968896651285327  1.0000
  O   O2        1.0  0.052306204475670144  0.3637981191834172  0.9073414507992816  1.0000
  C   C34       1.0  0.13184978512362444  0.532567315946952  0.9465388164770104  1.0000
  C   C35       1.0  0.1402588035972725  0.6606344919270815  0.9828988212807399  1.0000
  C   C36       1.0  0.20341398109895326  0.7260907366317754  0.9607011849585089  1.0000
  C   C37       1.0  0.25866635861581644  0.6649667864696456  0.9017131155896642  1.0000
  C   C38       1.0  0.25082231050482906  0.5383451785895628  0.8643471312254843  1.0000
  C   C39       1.0  0.18778577915316103  0.472431665880797  0.8862156401820537  1.0000
  H   H19       1.0  0.7019912110028574  0.3610394210372778  0.40043366026407995  1.0000
  H   H20       1.0  0.935147957072044  0.46611810214597615  0.2716410221465291  1.0000
  H   H21       1.0  0.9340982267591055  0.46855472968549305  0.8549644769916633  1.0000
  H   H22       1.0  0.7463135606398982  0.37928117394673433  0.07093722374082612  1.0000
  H   H23       1.0  0.8086269163420492  0.40972152498383224  0.62188159129044  1.0000
  H   H24       1.0  0.03475019559558046  0.5494551232748734  0.1420426985847432  1.0000
  H   H25       1.0  0.09796742079959442  0.7112442400966918  0.026683032746119845  1.0000
  H   H26       1.0  0.2094107116805148  0.8245687086641157  0.9888218825394236  1.0000
  H   H27       1.0  0.30747966761898243  0.7158682061438594  0.884590174038546  1.0000
  H   H28       1.0  0.2936285204271256  0.4911521769283613  0.818366053872139  1.0000
  H   H29       1.0  0.18298186131858563  0.37417435325378845  0.8567197114933421  1.0000
  Zn  Zn1       1.0  0.7598742296567539  0.42067250254331295  0.5674401843194223  1.0000
  Zn  Zn2       1.0  0.9124160213665924  0.42041554600706715  0.5674093469014698  1.0000
  C   C40       1.0  0.8361166424581853  0.41528284610064015  0.8046242829896338  1.0000
  C   C41       1.0  0.8361752744436729  0.42580683835863464  0.3302253754612019  1.0000
  C   C42       1.0  0.8361662117449618  0.6577589533826257  0.5622639640844089  1.0000
  C   C43       1.0  0.8361256529602638  0.18332917070083196  0.5725857635236662  1.0000
  O   O3        1.0  0.8940570030323824  0.42742266454059874  0.3786005538303887  1.0000
  O   O4        1.0  0.8940106041619844  0.4134710161833919  0.7562253258222688  1.0000
  O   O5        1.0  0.8940498514493164  0.6092735401596869  0.5605176538052496  1.0000
  O   O6        1.0  0.8940177037059185  0.23162014997887703  0.5743081284820131  1.0000
  O   O7        1.0  0.7782724952624019  0.6094678986606064  0.5605414027425706  1.0000
  O   O8        1.0  0.7782332481166767  0.41366693514923125  0.7562490056060427  1.0000
  O   O9        1.0  0.7782796472256595  0.4276185388215359  0.37862267218182954  1.0000
  O   O10       1.0  0.7782403478833015  0.23181601493434378  0.5743303442025407  1.0000
