data_image0
_chemical_formula_structural       NC9NC5H8C7H8C6OCH7Zn2C4O8
_chemical_formula_sum              "N2 C32 H23 O9 Zn2"
_cell_length_a       17.807436237873137
_cell_length_b       9.274341958901593
_cell_length_c       9.27389158865715
_cell_angle_alpha    86.04057496033718
_cell_angle_beta     89.08663702953788
_cell_angle_gamma    87.76967926577302

_space_group_name_H-M_alt    "P 1"
_space_group_IT_number       1

loop_
  _space_group_symop_operation_xyz
  'x, y, z'

loop_
  _atom_site_type_symbol
  _atom_site_label
  _atom_site_symmetry_multiplicity
  _atom_site_fract_x
  _atom_site_fract_y
  _atom_site_fract_z
  _atom_site_occupancy
  N   N1        1.0  0.7034596789372289  0.5270962379903976  0.3977760358789144  1.0000
  C   C1        1.0  0.6431287697990056  0.48788837247413547  0.38555883106709715  1.0000
  C   C2        1.0  0.5680837497591528  0.43911810539426854  0.37036195478239575  1.0000
  C   C3        1.0  0.5507845997444901  0.3587070768919216  0.2538535570814051  1.0000
  C   C4        1.0  0.4779207198126982  0.3112301908322326  0.23900671630405765  1.0000
  C   C5        1.0  0.4213097425837936  0.3437445692856603  0.34063245370982353  1.0000
  C   C6        1.0  0.3438732318228602  0.29341737464246176  0.32494514320971457  1.0000
  C   C7        1.0  0.28109959872800633  0.38451220096289723  0.3536923729393875  1.0000
  C   C8        1.0  0.2080946406733987  0.3368098799324315  0.3388608246681728  1.0000
  C   C9        1.0  0.14425286560418069  0.4308984903656097  0.3680105391013763  1.0000
  N   N2        1.0  0.09293710572089268  0.5065392348608775  0.3914461062426306  1.0000
  C   C10       1.0  0.1972814699453726  0.1977258600229515  0.29525404655959253  1.0000
  C   C11       1.0  0.2591978475420418  0.10661555843749859  0.26649751214936757  1.0000
  C   C12       1.0  0.3320865101364865  0.1538774839006154  0.2811044649413363  1.0000
  C   C13       1.0  0.43929648047538256  0.42470706877282033  0.4573839202775414  1.0000
  C   C14       1.0  0.5122149356090827  0.4719708426150427  0.47205809975330215  1.0000
  H   H1        1.0  0.5935559544056618  0.33299584393860715  0.17426906096554107  1.0000
  H   H2        1.0  0.4656168191018675  0.2507450674408722  0.14699891758261363  1.0000
  H   H3        1.0  0.2888917413575176  0.49308923381595093  0.38569240512289027  1.0000
  H   H4        1.0  0.1410644308381665  0.15980410025187353  0.2835124368101878  1.0000
  H   H5        1.0  0.2507061675071978  0.9989374277098766  0.23316466948925996  1.0000
  H   H6        1.0  0.3792017049192047  0.08064112726198026  0.25999678764749373  1.0000
  H   H7        1.0  0.3972411294646512  0.44983260296305533  0.5384055086190923  1.0000
  H   H8        1.0  0.5250429630907499  0.533801423083897  0.5629091163878095  1.0000
  C   C15       1.0  0.9005905140781217  0.09311799813686883  0.3948191516016817  1.0000
  C   C16       1.0  0.9098647077923867  0.17478225413650586  0.2626914410591441  1.0000
  C   C17       1.0  0.9116580105054481  0.10855490669637494  0.1320844991567944  1.0000
  C   C18       1.0  0.9033954155253552  0.9593450314507451  0.13047801728338992  1.0000
  C   C19       1.0  0.8964654419197916  0.8759395420245751  0.26150107528716915  1.0000
  C   C20       1.0  0.8958134557736495  0.9405061272849671  0.3944154261522228  1.0000
  C   C21       1.0  0.9069858793668298  0.8878976411002673  0.9900973359983468  1.0000
  H   H9        1.0  0.837069119269545  0.1776423984517799  0.72980015858252  1.0000
  H   H10       1.0  0.9141312460949775  0.2911424364246329  0.260144574786328  1.0000
  H   H11       1.0  0.9186993988006432  0.17415638189586446  0.031900209399653656  1.0000
  H   H12       1.0  0.8932935740871943  0.7595864095837135  0.25971245231897  1.0000
  H   H13       1.0  0.8560306763892219  0.6470583253960129  0.6217824918784325  1.0000
  H   H14       1.0  0.9661560295589166  0.8550145153671866  0.9655247244627678  1.0000
  H   H15       1.0  0.8853370843817069  0.963045725884247  0.9004976931052354  1.0000
  H   H16       1.0  0.872296552901098  0.7906085948673255  0.9964266129565454  1.0000
  C   C22       1.0  0.8994547021711644  0.5129258336799969  0.971323751396715  1.0000
  C   C23       1.0  0.9606564510694007  0.5706195235460076  0.03886816651075153  1.0000
  C   C24       1.0  0.0175345834454419  0.6393121799379884  0.9580932833873094  1.0000
  C   C25       1.0  0.013413764294697874  0.6506618746139263  0.8067133170026461  1.0000
  C   C26       1.0  0.9537958314210438  0.5920112127315793  0.7378014597838556  1.0000
  C   C27       1.0  0.896949268852491  0.5206982550299002  0.8179107692844876  1.0000
  O   O1        1.0  0.07669395079851539  0.695337735432479  0.03230480867139973  1.0000
  C   C28       1.0  0.138152495263524  0.768004982885935  0.9641864622884913  1.0000
  H   H17       1.0  0.7211968586352259  0.4337426626157037  0.0852884194374699  1.0000
  H   H18       1.0  0.05639523758975251  0.7034728417816989  0.7410613370980355  1.0000
  H   H19       1.0  0.9531475153206991  0.5994793982546389  0.6207265957405621  1.0000
  H   H20       1.0  0.7781103799597052  0.46160756095651356  0.5444366602231612  1.0000
  H   H21       1.0  0.11742873655659114  0.866707739583905  0.9000722233703339  1.0000
  H   H22       1.0  0.16989184807337732  0.6947432857187708  0.8932986398093821  1.0000
  H   H23       1.0  0.17642821975541814  0.8004620262584756  0.04838834963791005  1.0000
  Zn  Zn1       1.0  0.8158544469707963  0.5211601575581035  0.3959576932222302  1.0000
  Zn  Zn2       1.0  0.9805423507222117  0.5124636628855468  0.39327630481532155  1.0000
  C   C29       1.0  0.8974535883678596  0.5134812915759779  0.6578904794888911  1.0000
  C   C30       1.0  0.898944997030401  0.5201442557021336  0.13134362987963688  1.0000
  C   C31       1.0  0.896729566773803  0.7802792133313665  0.38874768581835994  1.0000
  C   C32       1.0  0.8996689719728849  0.25334460412874266  0.4004865021412676  1.0000
  O   O2        1.0  0.9612721720094889  0.5192602550475973  0.18403019297113188  1.0000
  O   O3        1.0  0.9601207290814927  0.507763761719159  0.6031683902146501  1.0000
  O   O4        1.0  0.9595352255464557  0.7232065159068385  0.38583369309851845  1.0000
  O   O5        1.0  0.9618576196093678  0.3038175131565781  0.4013647829180724  1.0000
  O   O6        1.0  0.8345391218837547  0.72980631025626  0.3878692160269223  1.0000
  O   O7        1.0  0.8351246158704791  0.5143652888557699  0.6052038354593974  1.0000
  O   O8        1.0  0.8362760642607397  0.5258617159913084  0.18606390519060811  1.0000
  O   O9        1.0  0.8368615115958918  0.3104189647728164  0.4033986032141834  1.0000
