data_image0
_chemical_formula_structural       NC9NC5H8C7F3H5C7F3H5Zn2C4O8
_chemical_formula_sum              "N2 C32 H18 F6 Zn2 O8"
_cell_length_a       17.807436237873137
_cell_length_b       9.27228830945605
_cell_length_c       9.272291681409872
_cell_angle_alpha    85.76598936101391
_cell_angle_beta     89.81650948764641
_cell_angle_gamma    87.81380667828488

_space_group_name_H-M_alt    "P 1"
_space_group_IT_number       1

loop_
  _space_group_symop_operation_xyz
  'x, y, z'

loop_
  _atom_site_type_symbol
  _atom_site_label
  _atom_site_symmetry_multiplicity
  _atom_site_fract_x
  _atom_site_fract_y
  _atom_site_fract_z
  _atom_site_occupancy
  N   N1        1.0  0.6934253842703456  0.5289064509839256  0.3904913721063097  1.0000
  C   C1        1.0  0.6329974909490825  0.48968566315393747  0.37845603721260196  1.0000
  C   C2        1.0  0.557831833140114  0.4408993221506876  0.3634853870764445  1.0000
  C   C3        1.0  0.5397259496321419  0.3605193060802292  0.24734113617595166  1.0000
  C   C4        1.0  0.4667442790776609  0.3130268056970924  0.232714516933249  1.0000
  C   C5        1.0  0.4108218376672149  0.34549435931452743  0.3341982853834522  1.0000
  C   C6        1.0  0.3332608027490421  0.29515058093796553  0.3187444224962741  1.0000
  C   C7        1.0  0.2707149069255764  0.38627520305690316  0.34706913406257733  1.0000
  C   C8        1.0  0.1975921691371891  0.3385571396077338  0.33245886130669255  1.0000
  C   C9        1.0  0.1339820116016048  0.4326768661036351  0.3611721192687556  1.0000
  N   N2        1.0  0.0828524642605769  0.5083426250033192  0.38425680566844367  1.0000
  C   C10       1.0  0.1864331798198412  0.19942744832405457  0.2894972135058915  1.0000
  C   C11       1.0  0.24812175207261264  0.10828734865879697  0.2611632686090146  1.0000
  C   C12       1.0  0.3211265243598942  0.15556492633894048  0.2755509802547964  1.0000
  C   C13       1.0  0.4296171465895284  0.4264259833293689  0.4505830539848003  1.0000
  C   C14       1.0  0.5026521589765632  0.4737053680809114  0.4650379901892421  1.0000
  H   H1        1.0  0.5819580023865158  0.3348446115449166  0.1678689793780137  1.0000
  H   H2        1.0  0.45380450741299905  0.252567758309  0.14098020635540198  1.0000
  H   H3        1.0  0.2787634439623745  0.49488917381219377  0.3785653426353235  1.0000
  H   H4        1.0  0.1301228352681355  0.16149314305075735  0.2779315151756685  1.0000
  H   H5        1.0  0.2393651810828222  0.0005735906582313757  0.2283299238484855  1.0000
  H   H6        1.0  0.3680719466352262  0.08230335490705842  0.25478318343462325  1.0000
  H   H7        1.0  0.3881104132165891  0.45151376749367844  0.5314951765390155  1.0000
  H   H8        1.0  0.5161089105878627  0.5355113071585769  0.5556091251440656  1.0000
  C   C15       1.0  0.8903618638276328  0.0947019927108046  0.38956034061477873  1.0000
  C   C16       1.0  0.9256441649868048  0.17385218181724849  0.27512911120592576  1.0000
  C   C17       1.0  0.9534871576167329  0.10572529503977958  0.1557906908769029  1.0000
  C   C18       1.0  0.9457573185357768  0.956848141489073  0.14669946244848053  1.0000
  C   C19       1.0  0.9132228297164385  0.8758864589109897  0.26292172792854207  1.0000
  C   C20       1.0  0.8859232846269218  0.9425357554685673  0.38520031665695686  1.0000
  C   C21       1.0  0.9777694271243101  0.8825083936263084  0.019557054268410482  1.0000
  F   F1        1.0  0.9766629482490645  0.9760861240944505  0.8960780727978582  1.0000
  F   F2        1.0  0.9362898137191811  0.7641051661250395  0.9927403237726472  1.0000
  F   F3        1.0  0.0511595762260022  0.8363488768891317  0.049601241387227775  1.0000
  H   H9        1.0  0.76498679130464  0.1861682054638056  0.6508766201025318  1.0000
  H   H10       1.0  0.9303894487795759  0.2898789284779437  0.2765448686107006  1.0000
  H   H11       1.0  0.9805507999078505  0.17002488875387206  0.0698103039552147  1.0000
  H   H12       1.0  0.9108098313931976  0.7595466980720841  0.25971870776826145  1.0000
  H   H13       1.0  0.852216436020629  0.817683455686343  0.7348754033927003  1.0000
  C   C22       1.0  0.8865803243618297  0.5149967969033873  0.9640639845178883  1.0000
  C   C23       1.0  0.9375927155484348  0.42147501829754563  0.043941513001682024  1.0000
  C   C24       1.0  0.9926205762242174  0.34067319833707055  0.9746707546553651  1.0000
  C   C25       1.0  0.9988240661084188  0.3529277891115703  0.8236133228090372  1.0000
  C   C26       1.0  0.946339464306905  0.4417461065152984  0.7426141614917694  1.0000
  C   C27       1.0  0.8897047928337208  0.5222409727430678  0.8106966102140283  1.0000
  C   C28       1.0  0.056970938640363844  0.2624535059791263  0.7485540243714888  1.0000
  F   F4        1.0  0.12001651151913227  0.23475621386994083  0.834591234850639  1.0000
  F   F5        1.0  0.07908357329241666  0.33350884382994983  0.6197500154745677  1.0000
  F   F6        1.0  0.026700588063917948  0.13253956664581182  0.7197671041709892  1.0000
  H   H14       1.0  0.7792365360483153  0.8122968483393042  0.0443485355456643  1.0000
  H   H15       1.0  0.9359035317730396  0.4129479393212321  0.16106028787751736  1.0000
  H   H16       1.0  0.030836796093684168  0.2693691902077766  0.039634490622195484  1.0000
  H   H17       1.0  0.9484616897043888  0.44548359810618937  0.6255722678111271  1.0000
  H   H18       1.0  0.7186910012794203  0.6695247671247213  0.6993693619176824  1.0000
  Zn  Zn1       1.0  0.8058056772076742  0.5229683943970895  0.3887005676325168  1.0000
  Zn  Zn2       1.0  0.9704722584666579  0.5142690156023548  0.38605952160761725  1.0000
  C   C29       1.0  0.889142641280764  0.5151207622194349  0.650694547894979  1.0000
  C   C30       1.0  0.8871370835339291  0.522118375451995  0.1240656446247337  1.0000
  C   C31       1.0  0.8867371876523162  0.7822281650408243  0.3802800987607533  1.0000
  C   C32       1.0  0.8895424903367951  0.2550092418540688  0.39448018043376276  1.0000
  O   O1        1.0  0.9498140793898935  0.5212007754236956  0.176761432574857  1.0000
  O   O2        1.0  0.9514437746449846  0.5094346424409649  0.5959938577560777  1.0000
  O   O3        1.0  0.9495005035540366  0.7251273055827285  0.3776322826451253  1.0000
  O   O4        1.0  0.951757293838343  0.30550812465245475  0.395122900448839  1.0000
  O   O5        1.0  0.8245205856433302  0.7317292883171672  0.3796371896849641  1.0000
  O   O6        1.0  0.826463847367201  0.5160383589221186  0.5979986790147808  1.0000
  O   O7        1.0  0.8248341460293238  0.5278044267670678  0.17876452094964934  1.0000
  O   O8        1.0  0.826777360927613  0.31211176659548223  0.3971260969542707  1.0000
