data_image0
_chemical_formula_structural       NC10NC3NH7C12SCH12C12NCOH11Zn2C4O8
_chemical_formula_sum              "N4 C43 H30 S1 O9 Zn2"
_cell_length_a       19.210446455230148
_cell_length_b       10.299776766347529
_cell_length_c       10.299148425239203
_cell_angle_alpha    85.5384344644465
_cell_angle_beta     89.97590399293748
_cell_angle_gamma    89.9285037425463

_space_group_name_H-M_alt    "P 1"
_space_group_IT_number       1

loop_
  _space_group_symop_operation_xyz
  'x, y, z'

loop_
  _atom_site_type_symbol
  _atom_site_label
  _atom_site_symmetry_multiplicity
  _atom_site_fract_x
  _atom_site_fract_y
  _atom_site_fract_z
  _atom_site_occupancy
  N   N1        1.0  0.6554170547502954  0.4207693374995174  0.5673167970758242  1.0000
  C   C1        1.0  0.5951879145790843  0.422976695794244  0.5675481073698405  1.0000
  C   C2        1.0  0.5203827425182981  0.4257134159637581  0.5678346720997283  1.0000
  C   C3        1.0  0.4847403397386726  0.5419343709333342  0.5829551867790783  1.0000
  C   C4        1.0  0.4120748273538026  0.5420859269988261  0.5829025959533174  1.0000
  C   C5        1.0  0.3752157961409368  0.42642232700802785  0.5679212081242098  1.0000
  C   C6        1.0  0.2978940337660073  0.42506595151043997  0.5677705159722884  1.0000
  C   C7        1.0  0.260120553703603  0.5286613199182146  0.5044113860881021  1.0000
  C   C8        1.0  0.1873425721549229  0.5272591724540825  0.5043022114177769  1.0000
  C   C9        1.0  0.1513365992660863  0.42251918182634274  0.5675011835151561  1.0000
  C   C10       1.0  0.0764074305346247  0.4212171929916768  0.5673642591825929  1.0000
  N   N2        1.0  0.0161698606878871  0.420170349745852  0.5672542068944946  1.0000
  C   C11       1.0  0.1883863923764119  0.3190495135373477  0.6308353116146952  1.0000
  C   C12       1.0  0.2611662876492678  0.3201773782617286  0.630994717276664  1.0000
  C   C13       1.0  0.4134675585136562  0.3120214558996339  0.5530889980950378  1.0000
  N   N3        1.0  0.4842368562916037  0.3144662955853674  0.5532547342144127  1.0000
  H   H1        1.0  0.5128168441746598  0.6313604290625563  0.595010352507992  1.0000
  H   H2        1.0  0.3847812036991337  0.6320932282878187  0.5963526164601893  1.0000
  H   H3        1.0  0.2868325669088483  0.6099347602084788  0.4534227586220434  1.0000
  H   H4        1.0  0.1591809559460035  0.6077043501613351  0.4546440109428521  1.0000
  H   H5        1.0  0.1610349371312178  0.237641007205863  0.6803939568823582  1.0000
  H   H6        1.0  0.2886828374907496  0.23985075751740625  0.6820907475433902  1.0000
  H   H7        1.0  0.3872272165621193  0.22115127626792846  0.5395926702181636  1.0000
  C   C14       1.0  0.8358624169970961  0.03910460907320302  0.5672838969330742  1.0000
  C   C15       1.0  0.8400265930369102  0.027479368680144233  0.7038060325613226  1.0000
  C   C16       1.0  0.8420695941538222  0.9044502548882395  0.7729882559131672  1.0000
  C   C17       1.0  0.8398934874250469  0.7921918069954567  0.7038212469810172  1.0000
  C   C18       1.0  0.8357311705946624  0.8018250971014973  0.5672983615989056  1.0000
  C   C19       1.0  0.8337385433874317  0.9257199918083567  0.4997939036081217  1.0000
  C   C20       1.0  0.8464671513625609  0.8932159811271136  0.9174132728225575  1.0000
  C   C21       1.0  0.806618011211861  0.7997910369476452  0.9914677375589166  1.0000
  C   C22       1.0  0.8107775335471862  0.7894526931633837  0.12738524524689862  1.0000
  C   C23       1.0  0.8546123920774645  0.872260265246177  0.19105510928464942  1.0000
  C   C24       1.0  0.8946274595245939  0.9651105782721631  0.11837377074831044  1.0000
  C   C25       1.0  0.8905700095455129  0.9757986456653046  0.9824458296644942  1.0000
  S   S1        1.0  0.8600263930532025  0.8585340826982345  0.3654559580256906  1.0000
  C   C26       1.0  0.790075038639476  0.9747039532487245  0.3849980909591537  1.0000
  H   H8        1.0  0.8343030624632787  0.37098778986866554  0.5152627612557781  1.0000
  H   H9        1.0  0.8407308289361394  0.114287337768485  0.7567677190266026  1.0000
  H   H10       1.0  0.8424127544523208  0.6971520362201472  0.756586469302692  1.0000
  H   H11       1.0  0.8305265345634427  0.9339198813940017  0.39447288078823073  1.0000
  H   H12       1.0  0.8341103855837481  0.4780421038022781  0.5152819026495944  1.0000
  H   H13       1.0  0.7715832204036385  0.7359046463017087  0.9443565940292631  1.0000
  H   H14       1.0  0.779648060502426  0.7174190178097782  0.18311580146913517  1.0000
  H   H15       1.0  0.9289211801339492  0.029053416854064595  0.16707408169472682  1.0000
  H   H16       1.0  0.9225778447461155  0.04746132674289094  0.9281282565430927  1.0000
  H   H17       1.0  0.804016677711172  0.07103075391085809  0.3361148052616355  1.0000
  H   H18       1.0  0.781994623004584  0.985353162262498  0.49028568247187065  1.0000
  H   H19       1.0  0.7410988216923199  0.9392702084776895  0.34288173401160993  1.0000
  C   C27       1.0  0.8358491122966737  0.4206206077766752  0.18589489899769182  1.0000
  C   C28       1.0  0.9064681832022673  0.4560619065185356  0.18191388815363307  1.0000
  C   C29       1.0  0.942162996980338  0.47381736880098896  0.0627633103943468  1.0000
  C   C30       1.0  0.9063214980658849  0.45572200303263055  0.9466567521787054  1.0000
  C   C31       1.0  0.8357444436533111  0.42030910791685705  0.94868730011735  1.0000
  C   C32       1.0  0.8009223074121584  0.40295706110717483  0.06881211930954921  1.0000
  C   C33       1.0  0.016827441704748477  0.5112858149277109  0.059644547707756276  1.0000
  C   C34       1.0  0.06361208886748645  0.45383777206862436  0.976037304979426  1.0000
  C   C35       1.0  0.13383758834053827  0.4892341740856246  0.9732516764549524  1.0000
  C   C36       1.0  0.1589229567521928  0.581464557729047  0.05475805487513873  1.0000
  C   C37       1.0  0.1120689099965535  0.6407589127128321  0.1367969478881483  1.0000
  C   C38       1.0  0.04181193440230779  0.6054692304351217  0.13967942513251286  1.0000
  N   N4        1.0  0.23120878033902595  0.6175511464865058  0.04821079921250203  1.0000
  C   C39       1.0  0.27124233718667123  0.6541573437319306  0.15693464528991272  1.0000
  O   O1        1.0  0.24769170745077806  0.6400340434723317  0.2712986393769383  1.0000
  H   H20       1.0  0.7026699759794737  0.352962841801189  0.4007616972843817  1.0000
  H   H21       1.0  0.9340838916214788  0.4682113497976985  0.2718357319316964  1.0000
  H   H22       1.0  0.9333269663820838  0.47106869144409813  0.8544194604200736  1.0000
  H   H23       1.0  0.746485275893943  0.3756386732436856  0.07109342705249054  1.0000
  H   H24       1.0  0.8086006609281361  0.40665205691673734  0.6219951645015972  1.0000
  H   H25       1.0  0.04607479577346817  0.38035785933944655  0.9138661133811277  1.0000
  H   H26       1.0  0.1690175703775083  0.44363828429971  0.9082897987964794  1.0000
  H   H27       1.0  0.1292108146548805  0.716403997744679  0.1965616403609167  1.0000
  H   H28       1.0  0.006713630842055894  0.6537312108887674  0.2027487649710653  1.0000
  H   H29       1.0  0.2579825945076979  0.6085674673712473  0.9610229110542357  1.0000
  H   H30       1.0  0.32350284142505537  0.6911099704950292  0.14110240725045964  1.0000
  Zn  Zn1       1.0  0.759522520581975  0.42059301548995043  0.5673062344400379  1.0000
  Zn  Zn2       1.0  0.9120643792781251  0.42033608496624075  0.5672754058685987  1.0000
  C   C40       1.0  0.8357635718176502  0.4151943602691958  0.804503135123763  1.0000
  C   C41       1.0  0.8358249934952986  0.42573637593305474  0.3300786323548308  1.0000
  C   C42       1.0  0.8357530875097111  0.6576568148720232  0.5621200678272187  1.0000
  C   C43       1.0  0.8358354260103984  0.18327236110208145  0.5724617688759377  1.0000
  O   O2        1.0  0.8937057403769428  0.4273501049779016  0.37845631101467747  1.0000
  O   O3        1.0  0.8936585663279484  0.4133846473414402  0.7561016844001662  1.0000
  O   O4        1.0  0.8936493195621438  0.6091761465523755  0.560375642841076  1.0000
  O   O5        1.0  0.8937149351023067  0.23155861518453968  0.5741822552028246  1.0000
  O   O6        1.0  0.7778719127027441  0.6093704853607462  0.5603993851095008  1.0000
  O   O7        1.0  0.7778811592063388  0.413580546467051  0.7561253574477178  1.0000
  O   O8        1.0  0.7779283335236685  0.4275459594855806  0.3784784225488874  1.0000
  O   O9        1.0  0.7779375282344239  0.2317544603637396  0.5742044641116673  1.0000
