data_image0
_chemical_formula_structural       NC9NC4H8C6NCOCH7C7F3H4Zn2C4O8
_chemical_formula_sum              "N3 C32 H19 O9 F3 Zn2"
_cell_length_a       16.32274767691083
_cell_length_b       10.300268703208216
_cell_length_c       9.272721663655245
_cell_angle_alpha    85.87639938124998
_cell_angle_beta     89.98655041730063
_cell_angle_gamma    89.50441699892957

_space_group_name_H-M_alt    "P 1"
_space_group_IT_number       1

loop_
  _space_group_symop_operation_xyz
  'x, y, z'

loop_
  _atom_site_type_symbol
  _atom_site_label
  _atom_site_symmetry_multiplicity
  _atom_site_fract_x
  _atom_site_fract_y
  _atom_site_fract_z
  _atom_site_occupancy
  N   N1        1.0  0.7629712735069488  0.4040471927156881  0.3977824925282032  1.0000
  C   C1        1.0  0.7103463005380108  0.35631338409078284  0.33750453252360035  1.0000
  C   C2        1.0  0.6449331934783328  0.29702762208858924  0.26263882419705076  1.0000
  C   C3        1.0  0.6559942299372321  0.215935255794478  0.16023109241326527  1.0000
  C   C4        1.0  0.57638867678655  0.17636177038056022  0.11025952357829726  1.0000
  C   C5        1.0  0.5178068454050181  0.23427669493921432  0.18340008459379376  1.0000
  C   C6        1.0  0.427776561823456  0.21897032022763563  0.1640736090939774  1.0000
  C   C7        1.0  0.372589939895791  0.28647386468884406  0.24931544811855108  1.0000
  C   C8        1.0  0.2878021140865061  0.27339229982126145  0.23279781741635072  1.0000
  C   C9        1.0  0.2322161449920656  0.3429710231913099  0.3206592951559728  1.0000
  N   N2        1.0  0.18754389568782748  0.39890086525129403  0.39128504221580007  1.0000
  C   C10       1.0  0.2571472134916133  0.1926980199479997  0.13090118179497545  1.0000
  C   C11       1.0  0.31101246111844777  0.1252838907296845  0.04577263072348248  1.0000
  C   C12       1.0  0.3956393537186803  0.13801309784780025  0.06184517893031183  1.0000
  C   C13       1.0  0.5560729173069374  0.31872301613524145  0.29004047897404495  1.0000
  H   H1        1.0  0.7147105525560744  0.18440224615953138  0.1204070479344912  1.0000
  H   H2        1.0  0.5676915791043391  0.11008507946629575  0.02656160693147047  1.0000
  H   H3        1.0  0.39508424579754114  0.3494693543519752  0.32886306865160675  1.0000
  H   H4        1.0  0.1916901368801458  0.18192152176648735  0.11729432955147788  1.0000
  H   H5        1.0  0.2871255709884799  0.06285934307867724  0.9669462515871691  1.0000
  H   H6        1.0  0.4350937100973015  0.0840861360618832  0.9937482556056261  1.0000
  H   H7        1.0  0.539881684314713  0.28453560853117815  0.40273158575982726  1.0000
  H   H8        1.0  0.5391444389461719  0.4226600107122587  0.2654329005056004  1.0000
  C   C14       1.0  0.9753447838420461  0.020125349688363544  0.3945409567809157  1.0000
  C   C15       1.0  0.9883891029402243  0.02860789840947442  0.24445074124767086  1.0000
  C   C16       1.0  0.99608127106074  0.9155698438241159  0.16911107849178797  1.0000
  C   C17       1.0  0.9882039549852129  0.7934508026809098  0.2444895472544304  1.0000
  C   C18       1.0  0.975178287629845  0.7828126653904207  0.394538917775032  1.0000
  C   C19       1.0  0.969126327254071  0.8967445983263664  0.46885533214595476  1.0000
  N   N3        1.0  0.008158929320532636  0.9226779086098251  0.01510233010707384  1.0000
  C   C20       1.0  0.0558570732017822  0.02082209772197908  0.9368925296934489  1.0000
  O   O1        1.0  0.10245621289647922  0.0935838234210522  0.002765632994114807  1.0000
  C   C21       1.0  0.05506426428596112  0.030914384245558365  0.775375439889495  1.0000
  H   H9        1.0  0.9909420064836705  0.1231344696653174  0.18575108541876673  1.0000
  H   H10       1.0  0.9929874193658512  0.7067370518871459  0.18539194926134295  1.0000
  H   H11       1.0  0.9590879931762789  0.8893927075176641  0.5846213567624288  1.0000
  H   H12       1.0  0.9852968172175307  0.8472428679473154  0.9575149913066824  1.0000
  H   H13       1.0  0.992153793905625  0.014438576004243359  0.7354573560324873  1.0000
  H   H14       1.0  0.07515978089355713  0.12912163973575574  0.733022333992424  1.0000
  H   H15       1.0  0.0971466559823948  0.9564813808865893  0.7350381518790079  1.0000
  C   C22       1.0  0.9730943912328708  0.3993889947186957  0.971129897341363  1.0000
  C   C23       1.0  0.007984960357498409  0.2927469236815259  0.053318924420581386  1.0000
  C   C24       1.0  0.05005432712842817  0.19374227171956449  0.9867707012657672  1.0000
  C   C25       1.0  0.05472343674181368  0.19966565722808904  0.835549392929396  1.0000
  C   C26       1.0  0.019347926144566593  0.30360986927455796  0.7523995013753892  1.0000
  C   C27       1.0  0.9774287134392268  0.4035490171671631  0.8179499698567936  1.0000
  C   C28       1.0  0.08514059648841843  0.07850945446340774  0.07658180175864704  1.0000
  F   F1        1.0  0.11272215594267099  0.11591775069029642  0.20839243122414053  1.0000
  F   F2        1.0  0.15045581721533052  0.02400339774190363  0.006462657073849522  1.0000
  F   F3        1.0  0.025014728734088502  0.9857638499024051  0.10053820533216329  1.0000
  H   H16       1.0  0.9210966547265775  0.7092560008303994  0.048143183356647024  1.0000
  H   H17       1.0  0.003895299516876619  0.28818291341091506  0.17022717166312162  1.0000
  H   H18       1.0  0.022858402981259504  0.30398265223492094  0.6356911588906731  1.0000
  H   H19       1.0  0.8303634324699496  0.6243630211315223  0.6989084212613093  1.0000
  Zn  Zn1       1.0  0.8854938105820326  0.402558629289238  0.3959157954983432  1.0000
  Zn  Zn2       1.0  0.06502142756910852  0.4003788302997789  0.393163551289903  1.0000
  C   C29       1.0  0.9766087186070112  0.39758928658635706  0.6578829031592583  1.0000
  C   C30       1.0  0.9739084803467961  0.4053497884269886  0.13119655508824457  1.0000
  C   C31       1.0  0.9751761452778991  0.6386203348851787  0.3887937105785788  1.0000
  C   C32       1.0  0.9753409931497036  0.16431718102999127  0.4002858254835324  1.0000
  O   O2        1.0  0.04231149235745411  0.4065173974514605  0.18387192533644647  1.0000
  O   O3        1.0  0.04446301199269653  0.3947662788566191  0.6031182281841816  1.0000
  O   O4        1.0  0.043305280163469885  0.589401917127947  0.3858268154010742  1.0000
  O   O5        1.0  0.04346916237070109  0.2118817686825927  0.401163230949682  1.0000
  O   O6        1.0  0.9070460145164364  0.5910556916516589  0.38791611677018567  1.0000
  O   O7        1.0  0.9082037456078634  0.3964216132237415  0.6052074526703071  1.0000
  O   O8        1.0  0.9060522171642341  0.4081726780484201  0.18595941629635648  1.0000
  O   O9        1.0  0.9072098877294569  0.21353704052232672  0.40325083001108664  1.0000
