data_image0
_chemical_formula_structural       NC9NC3NH7C7F3H5C9H10Zn2C4O8
_chemical_formula_sum              "N3 C32 H22 F3 Zn2 O8"
_cell_length_a       16.053384444249904
_cell_length_b       9.272718291674593
_cell_length_c       9.272679976505534
_cell_angle_alpha    86.45423910102922
_cell_angle_beta     90.20084585415952
_cell_angle_gamma    88.75080299671951

_space_group_name_H-M_alt    "P 1"
_space_group_IT_number       1

loop_
  _space_group_symop_operation_xyz
  'x, y, z'

loop_
  _atom_site_type_symbol
  _atom_site_label
  _atom_site_symmetry_multiplicity
  _atom_site_fract_x
  _atom_site_fract_y
  _atom_site_fract_z
  _atom_site_occupancy
  N   N1        1.0  0.771515669908631  0.5462049634594386  0.4182006724357379  1.0000
  C   C1        1.0  0.7205341124644283  0.5224356154444192  0.33493537538650625  1.0000
  C   C2        1.0  0.6571781087813536  0.49290211908642556  0.23149953176674498  1.0000
  C   C3        1.0  0.6702849802190122  0.4783376207930137  0.08626739904351877  1.0000
  C   C4        1.0  0.5935537383030655  0.44975450804876194  0.028046575218142016  1.0000
  C   C5        1.0  0.5369089177055866  0.44847068901968146  0.14089884191854904  1.0000
  C   C6        1.0  0.4463246490227429  0.42193029799533477  0.12932369859891057  1.0000
  C   C7        1.0  0.3906343754442883  0.4701851468266558  0.23393100747821813  1.0000
  C   C8        1.0  0.3051500688903059  0.44501320961662366  0.22284608704806794  1.0000
  C   C9        1.0  0.24868177067872244  0.49522638991702816  0.33010116083998997  1.0000
  N   N2        1.0  0.2032978860683368  0.5355906927471628  0.4163174494099282  1.0000
  C   C10       1.0  0.2746305950637485  0.3714622037071116  0.10716813817254067  1.0000
  C   C11       1.0  0.32931266992221775  0.32334203623629776  0.002796812820384127  1.0000
  C   C12       1.0  0.4145900729079541  0.3483264596796043  0.013440084134756395  1.0000
  N   N3        1.0  0.5764731320817391  0.4749624891379991  0.26493207328850454  1.0000
  H   H1        1.0  0.7287545596438565  0.4874698619485176  0.02903938695570996  1.0000
  H   H2        1.0  0.5809193289451073  0.43356814846652325  0.9156132210839426  1.0000
  H   H3        1.0  0.4130504515741244  0.529136830368492  0.3229577395107124  1.0000
  H   H4        1.0  0.2086566825346586  0.35143855010412417  0.09765617872769394  1.0000
  H   H5        1.0  0.3055974795824655  0.266211207850074  0.9135242497418941  1.0000
  H   H6        1.0  0.455558939524968  0.30832452584424774  0.931828126986908  1.0000
  H   H7        1.0  0.5507006039212713  0.4784103073173094  0.3679267039251079  1.0000
  C   C13       1.0  0.9892125737988503  0.11744502372102028  0.41406635969808736  1.0000
  C   C14       1.0  0.9380326833261163  0.19921013535563636  0.31465362499915606  1.0000
  C   C15       1.0  0.8810026367890521  0.13236672792893178  0.22664219306412625  1.0000
  C   C16       1.0  0.8773488746105539  0.9812360277166491  0.23508704958420168  1.0000
  C   C17       1.0  0.9285787058917933  0.8984853970944957  0.33137979336632883  1.0000
  C   C18       1.0  0.985609018031735  0.9643394746939489  0.4204641366104182  1.0000
  C   C19       1.0  0.8282710228107966  0.2216931490165761  0.11806408014190038  1.0000
  F   F1        1.0  0.8070699929321963  0.35405722851394783  0.17055391601886982  1.0000
  F   F2        1.0  0.7554249338533114  0.15183988915758428  0.08826012977673536  1.0000
  F   F3        1.0  0.872715991880061  0.24436158348845294  0.9915800860694692  1.0000
  H   H8        1.0  0.08936828094636007  0.19619198373546395  0.7247752977295154  1.0000
  H   H9        1.0  0.9413317303535065  0.3160436090980894  0.3079289722074854  1.0000
  H   H10       1.0  0.8354305311188676  0.9266132837893736  0.16593985745477258  1.0000
  H   H11       1.0  0.9251859436011347  0.7818153944622  0.33333437089303697  1.0000
  H   H12       1.0  0.16515073313100959  0.8454152818536319  0.5932068404776634  1.0000
  C   C20       1.0  0.9857361121546763  0.5375287117315408  0.9938841977696539  1.0000
  C   C21       1.0  0.04273443637599872  0.4469391806795917  0.07322963890147882  1.0000
  C   C22       1.0  0.10378584310202908  0.36793400672075727  0.0037782278611992975  1.0000
  C   C23       1.0  0.10990309745432647  0.3769187654460944  0.8529581440320482  1.0000
  C   C24       1.0  0.051913065260304175  0.46557582294170907  0.7722180036347409  1.0000
  C   C25       1.0  0.9890854819630277  0.5442558146635683  0.8406463040444104  1.0000
  C   C26       1.0  0.1787635386984714  0.2883706394703376  0.7858549670249957  1.0000
  C   C27       1.0  0.15920624454045096  0.22286652151021902  0.6433430969430143  1.0000
  C   C28       1.0  0.21725702828608218  0.35054233078903985  0.6462444303903165  1.0000
  H   H13       1.0  0.8598762309996956  0.6381085537008528  0.26811874796448176  1.0000
  H   H14       1.0  0.04144646423082432  0.4396978146168924  0.19025504454251863  1.0000
  H   H15       1.0  0.1471994958355396  0.3002338477965565  0.06871909256522278  1.0000
  H   H16       1.0  0.0537501794395856  0.47176376933725206  0.6554780637762976  1.0000
  H   H17       1.0  0.799361389748719  0.6845622735212848  0.7277933623182107  1.0000
  H   H18       1.0  0.22258343132356906  0.22243200745213287  0.8573612815062801  1.0000
  H   H19       1.0  0.09721721312299114  0.24899528706820417  0.5941173017382146  1.0000
  H   H20       1.0  0.192008551921526  0.11826003955561527  0.628123728731321  1.0000
  H   H21       1.0  0.19057099689884582  0.45416012014822743  0.5986636664337429  1.0000
  H   H22       1.0  0.2839972489600985  0.3205470802164292  0.6327168216588643  1.0000
  Zn  Zn1       1.0  0.8961187374800502  0.5431381345713173  0.41766550415762405  1.0000
  Zn  Zn2       1.0  0.07869489163461707  0.5386458673068184  0.4168643124679734  1.0000
  C   C29       1.0  0.9884749724206647  0.5372396848553769  0.6805467037110117  1.0000
  C   C30       1.0  0.9863406432379369  0.5445460885319278  0.15398325941859967  1.0000
  C   C31       1.0  0.9862631643550891  0.8042128632842251  0.4135095261010655  1.0000
  C   C32       1.0  0.9885523966787957  0.27757117976550116  0.4210205010802318  1.0000
  O   O1        1.0  0.05583025515801921  0.5451901013224818  0.20740987143618694  1.0000
  O   O2        1.0  0.05755643996634529  0.533185054023509  0.6265115824920038  1.0000
  O   O3        1.0  0.055769448893294715  0.7487693068327614  0.4108771876651389  1.0000
  O   O4        1.0  0.057617183458706256  0.32960585950271826  0.4230441585127784  1.0000
  O   O5        1.0  0.9171963833516434  0.7521781439099171  0.41148565837865525  1.0000
  O   O6        1.0  0.9189833667450931  0.5365956229727423  0.6271199894196698  1.0000
  O   O7        1.0  0.9172571753494734  0.5486006062494062  0.2080165445773201  1.0000
  O   O8        1.0  0.9190441041182063  0.33301635497465365  0.4236509396700207  1.0000
