data_image0
_chemical_formula_structural       NC8NH4C7NH5C6BrH3Zn2C4O8
_chemical_formula_sum              "N3 C25 H12 Br1 Zn2 O8"
_cell_length_a       13.859017124695912
_cell_length_b       9.275154477615127
_cell_length_c       9.275428193871798
_cell_angle_alpha    86.39200360318996
_cell_angle_beta     89.9409138534418
_cell_angle_gamma    89.43373790894346

_space_group_name_H-M_alt    "P 1"
_space_group_IT_number       1

loop_
  _space_group_symop_operation_xyz
  'x, y, z'

loop_
  _atom_site_type_symbol
  _atom_site_label
  _atom_site_symmetry_multiplicity
  _atom_site_fract_x
  _atom_site_fract_y
  _atom_site_fract_z
  _atom_site_occupancy
  N   N1        1.0  0.8993567200819522  0.5611045664398167  0.41672547194907406  1.0000
  C   C1        1.0  0.827196127750794  0.5376550032851757  0.3604845062474329  1.0000
  C   C2        1.0  0.737432619190725  0.5084871676395452  0.29052797465689806  1.0000
  C   C3        1.0  0.6495822791512683  0.5369228386550193  0.35872679414870245  1.0000
  C   C4        1.0  0.56220229166157  0.5084883870672721  0.29052740034825675  1.0000
  C   C5        1.0  0.5628551186582108  0.4516105446821171  0.1541082569260328  1.0000
  C   C6        1.0  0.6505219943638972  0.4232841688621367  0.08617195230500663  1.0000
  C   C7        1.0  0.7377204921806184  0.45160820820395725  0.15410942569530528  1.0000
  C   C8        1.0  0.47195628328132067  0.5376559243667851  0.3604840120167043  1.0000
  N   N2        1.0  0.39940784370012816  0.5611048866930601  0.41672525726768844  1.0000
  H   H1        1.0  0.6492181729202701  0.5809484889803707  0.4643184828008817  1.0000
  H   H2        1.0  0.4957447710369302  0.42923057228539147  0.10042832829713189  1.0000
  H   H3        1.0  0.6508854242799532  0.3793484286623183  0.9807941076322798  1.0000
  H   H4        1.0  0.8052010154433581  0.4292261461085232  0.10043048774035435  1.0000
  C   C9        1.0  0.1521803232463037  0.13769777035580444  0.41505783691206277  1.0000
  C   C10       1.0  0.12579172113102488  0.21952994920653324  0.2880024204872491  1.0000
  C   C11       1.0  0.0915496904032167  0.1522159594420016  0.1676773224429695  1.0000
  C   C12       1.0  0.08313202323560565  0.0021517530619603654  0.1729905519485768  1.0000
  C   C13       1.0  0.1104171086886454  0.9190811985890339  0.29714984076307344  1.0000
  C   C14       1.0  0.1465935401999876  0.984500770992569  0.4184053741544258  1.0000
  C   C15       1.0  0.06387855264924203  0.23761371619689697  0.03909055730041744  1.0000
  N   N3        1.0  0.041638635459356754  0.30625795575324505  0.935739735329271  1.0000
  H   H5        1.0  0.17062081693676268  0.21811855459786256  0.7687781869150863  1.0000
  H   H6        1.0  0.12973549590673517  0.3364440263821094  0.2837267051847756  1.0000
  H   H7        1.0  0.056300739728265325  0.9490448253042876  0.08051315728224527  1.0000
  H   H8        1.0  0.1053504956119331  0.802612254583257  0.29702302427448773  1.0000
  H   H9        1.0  0.16310548366457245  0.6882429521018345  0.6554080685216783  1.0000
  C   C16       1.0  0.1497079701791144  0.5566133181413373  0.9935601585942478  1.0000
  C   C17       1.0  0.23857363943922505  0.5592976565554535  0.06661605698708793  1.0000
  C   C18       1.0  0.32504696056443794  0.5751398514615389  0.9901419099948455  1.0000
  C   C19       1.0  0.3240162072613444  0.5887178583941679  0.8396383424687522  1.0000
  C   C20       1.0  0.2368504761791952  0.5839534036093119  0.7650670738110694  1.0000
  C   C21       1.0  0.1490659137779724  0.5655852117292068  0.8399030146720889  1.0000
  Br  Br1       1.0  0.44464543507883736  0.5806520844833425  0.09172758173664985  1.0000
  H   H10       1.0  0.9171099526485087  0.6280581166014929  0.0924080364635953  1.0000
  H   H11       1.0  0.39092400273136807  0.6016027690587105  0.7801093811805884  1.0000
  H   H12       1.0  0.992182088656496  0.6075882335902032  0.5563330173648624  1.0000
  Zn  Zn1       1.0  0.043660694748906  0.561100897587388  0.41673372092426497  1.0000
  Zn  Zn2       1.0  0.2551039300287141  0.5610969191452284  0.4167287810238382  1.0000
  C   C22       1.0  0.14922299727611898  0.55814535065723  0.679903380803619  1.0000
  C   C23       1.0  0.14954392434527944  0.5640542867751399  0.15355926972045641  1.0000
  C   C24       1.0  0.14764894696491226  0.8243760847017866  0.4120301515187108  1.0000
  C   C25       1.0  0.1511179138762242  0.29782182125238227  0.4214325689871223  1.0000
  O   O1        1.0  0.2297305164079926  0.5665437437512533  0.20725453349182055  1.0000
  O   O2        1.0  0.22951693581827823  0.5556517820212716  0.6262039486383346  1.0000
  O   O3        1.0  0.22824478745340063  0.7706364826139396  0.40989442669500353  1.0000
  O   O4        1.0  0.23100259263554013  0.3515590523288304  0.4235639474295356  1.0000
  O   O5        1.0  0.06776195998687683  0.770638764406633  0.4098985545126794  1.0000
  O   O6        1.0  0.06903409697681352  0.5556557952950136  0.6262080064683644  1.0000
  O   O7        1.0  0.06924767927659614  0.5665476884141469  0.20725685857469583  1.0000
  O   O8        1.0  0.07051975548627021  0.35156298782432627  0.4235663805121392  1.0000
