data_image0
_chemical_formula_structural       NC9NC5H8C7OC4NC3H8C7OC2NC3H11Zn2C4O8
_chemical_formula_sum              "N4 C44 H27 O10 Zn2"
_cell_length_a       17.807436237873137
_cell_length_b       10.299371701877256
_cell_length_c       10.298749378158432
_cell_angle_alpha    85.57636868446646
_cell_angle_beta     89.40102399035862
_cell_angle_gamma    88.40037932452064

_space_group_name_H-M_alt    "P 1"
_space_group_IT_number       1

loop_
  _space_group_symop_operation_xyz
  'x, y, z'

loop_
  _atom_site_type_symbol
  _atom_site_label
  _atom_site_symmetry_multiplicity
  _atom_site_fract_x
  _atom_site_fract_y
  _atom_site_fract_z
  _atom_site_occupancy
  N   N1        1.0  0.7074238284130179  0.3878732082372739  0.5574891213618354  1.0000
  C   C1        1.0  0.6468316838163578  0.35268449969278026  0.5464520742951977  1.0000
  C   C2        1.0  0.5714617155773994  0.3089136214481636  0.5327231861529955  1.0000
  C   C3        1.0  0.5533534807338929  0.23750757822418533  0.4276867323986724  1.0000
  C   C4        1.0  0.48017311183615846  0.19489793941999237  0.41427419301666274  1.0000
  C   C5        1.0  0.4240522175135505  0.2233168178857951  0.5058655221146067  1.0000
  C   C6        1.0  0.3462803691825584  0.17814865520207165  0.49169358731830376  1.0000
  C   C7        1.0  0.2841147676020908  0.2599024300596211  0.517663030886883  1.0000
  C   C8        1.0  0.2107920741905978  0.21708975253602625  0.5042641033842719  1.0000
  C   C9        1.0  0.1475766925913121  0.301534841887642  0.5305984136231487  1.0000
  N   N2        1.0  0.0967645134117863  0.36942285138596614  0.5517704704809177  1.0000
  C   C10       1.0  0.1990514086800212  0.09226532299727364  0.4648702909821214  1.0000
  C   C11       1.0  0.2603596382563122  0.010497696584238719  0.438892452205764  1.0000
  C   C12       1.0  0.3335628408128793  0.05291585112318286  0.45208868745839714  1.0000
  C   C13       1.0  0.4428519274752944  0.2952172077755426  0.6111213953878312  1.0000
  C   C14       1.0  0.5160851340828418  0.3376364657711306  0.6243782048715261  1.0000
  H   H1        1.0  0.5957396189046339  0.21502844324777692  0.35596013346659894  1.0000
  H   H2        1.0  0.467247556833657  0.14122278051381199  0.33132813331388444  1.0000
  H   H3        1.0  0.2926248636532511  0.3573646185864652  0.546576281337467  1.0000
  H   H4        1.0  0.1425819269035066  0.05823025913116097  0.45426271946869967  1.0000
  H   H5        1.0  0.2511511735993522  0.9138557061719743  0.4087789734554996  1.0000
  H   H6        1.0  0.3801951930639109  0.9871726019689245  0.43301589697032855  1.0000
  H   H7        1.0  0.401182730963234  0.3171571861231135  0.6841424150568836  1.0000
  H   H8        1.0  0.5295390702029248  0.3925322945073159  0.706282972970798  1.0000
  C   C15       1.0  0.9020584522570112  0.9972793128099329  0.5545033393740728  1.0000
  C   C16       1.0  0.9056962934392241  0.006458935452048344  0.4177763934521896  1.0000
  C   C17       1.0  0.906678073547557  0.8939604001482435  0.3487652390133711  1.0000
  C   C18       1.0  0.9057056152352913  0.7711901521183252  0.41809367242716156  1.0000
  C   C19       1.0  0.9021370668780617  0.7600064237609623  0.5547674134683673  1.0000
  C   C20       1.0  0.9001364740118091  0.8736610610823493  0.6221685253980431  1.0000
  C   C21       1.0  0.9113083771437015  0.9034722965256837  0.20443814381718342  1.0000
  O   O1        1.0  0.9474612386515158  0.8160167122188297  0.14895779908380757  1.0000
  C   C22       1.0  0.8749128658317156  0.012116975309450547  0.12305536729755186  1.0000
  C   C23       1.0  0.9070771921660705  0.055246805492895616  0.002605101662501722  1.0000
  C   C24       1.0  0.8726633160511162  0.15678726317526848  0.9243148195994766  1.0000
  C   C25       1.0  0.9062848882996879  0.2010322655200396  0.8016568630098959  1.0000
  N   N3        1.0  0.9333151365090877  0.2365956873983015  0.70305760333579  1.0000
  C   C26       1.0  0.8055241435285418  0.21514405759089986  0.9654753300408436  1.0000
  C   C27       1.0  0.7727254759351274  0.1718338027207309  0.0841952532846888  1.0000
  C   C28       1.0  0.8069236491611764  0.07060104227117937  0.162477305245867  1.0000
  H   H9        1.0  0.9086119039131078  0.10124880582103767  0.3648436089074856  1.0000
  H   H10       1.0  0.9070193140441434  0.684294688676457  0.3650587724131964  1.0000
  H   H11       1.0  0.8973323753279816  0.865780331618865  0.7275752490581973  1.0000
  H   H12       1.0  0.9013985125867753  0.4282197631909167  0.6073068446920662  1.0000
  H   H13       1.0  0.9591735203482316  0.010689452831451179  0.9702610323870142  1.0000
  H   H14       1.0  0.7784363456756277  0.2936488450324589  0.9056299048530941  1.0000
  H   H15       1.0  0.7205007659205064  0.2164135183677809  0.11538812931773589  1.0000
  H   H16       1.0  0.779790441148621  0.037169624172824774  0.2530378559937585  1.0000
  C   C29       1.0  0.9020631126838053  0.3786725243780593  0.1732348407569302  1.0000
  C   C30       1.0  0.9431111077625033  0.49359238644521186  0.1626528872443489  1.0000
  C   C31       1.0  0.9631137538878674  0.552540446389673  0.04007459157054294  1.0000
  C   C32       1.0  0.9431140985166363  0.49364110627479135  0.9274088308871065  1.0000
  C   C33       1.0  0.9021323827648542  0.3786132092728367  0.9360359135873954  1.0000
  C   C34       1.0  0.8816943947500996  0.32204761515676705  0.05937014070659275  1.0000
  C   C35       1.0  0.007069283089450757  0.6732257395508392  0.028791533964309002  1.0000
  O   O2        1.0  0.05401306228640856  0.6893439862902417  0.9367614923180844  1.0000
  C   C36       1.0  0.9977712401749255  0.775617448629122  0.12185324272414144  1.0000
  C   C37       1.0  0.9190975085973621  0.8994220505102004  0.2664550951832301  1.0000
  N   N4        1.0  0.8475744518862681  0.9246631225214204  0.3251853726809022  1.0000
  C   C38       1.0  0.9810965703473693  0.9727353129060394  0.2949686483522205  1.0000
  C   C39       1.0  0.05078510386632384  0.9488094544674897  0.23677429469276934  1.0000
  C   C40       1.0  0.059135236863442346  0.8512231336926539  0.1502943809128694  1.0000
  H   H17       1.0  0.8254981475125315  0.16046969761397323  0.40065496535602785  1.0000
  H   H18       1.0  0.9602724870763236  0.5366250572896643  0.24996222015983238  1.0000
  H   H19       1.0  0.9589625496760632  0.5384121538705611  0.832785567523775  1.0000
  H   H20       1.0  0.8500573740633023  0.23346257625766675  0.0667750738285644  1.0000
  H   H21       1.0  0.8249694901145114  0.16101770758518819  0.7450484078638073  1.0000
  H   H22       1.0  0.8790120277079158  0.7468119797685615  0.15624686559607692  1.0000
  H   H23       1.0  0.8009839180361434  0.8705987867331894  0.3046221185035425  1.0000
  H   H24       1.0  0.8406986215733278  0.9975075352119374  0.38979930571652693  1.0000
  H   H25       1.0  0.9753316934405662  0.04862304597059452  0.3618126824288479  1.0000
  H   H26       1.0  0.09846166382069876  0.006017326264870615  0.2587310578050601  1.0000
  H   H27       1.0  0.11371082804682953  0.8339921364673376  0.10648722365184861  1.0000
  Zn  Zn1       1.0  0.8197791390141927  0.38254536793293187  0.5558463524626229  1.0000
  Zn  Zn2       1.0  0.9844091844922622  0.3747401046962497  0.5534239132121439  1.0000
  C   C41       1.0  0.9021170962283411  0.373450845152514  0.7918484128107791  1.0000
  C   C42       1.0  0.9020730252135591  0.38383618085157106  0.3174219544553851  1.0000
  C   C43       1.0  0.9021178680898135  0.6158353655883355  0.5495419574811378  1.0000
  C   C44       1.0  0.9020721970208329  0.14145010277264375  0.5597284793157846  1.0000
  O   O3        1.0  0.9645525956473786  0.3826014286777193  0.36489316194558286  1.0000
  O   O4        1.0  0.9645879208974861  0.36876060343870115  0.7425382557646538  1.0000
  O   O5        1.0  0.9645877020984063  0.5644892088862319  0.5468740915879535  1.0000
  O   O6        1.0  0.9645527582614872  0.18687283519137957  0.5605572295693722  1.0000
  O   O7        1.0  0.8396355090648125  0.5704126401027694  0.5487130369252233  1.0000
  O   O8        1.0  0.8396357280149911  0.37468559496331305  0.7443771323909938  1.0000
  O   O9        1.0  0.839600402668338  0.38852637506541643  0.36673047702536143  1.0000
  O   O10       1.0  0.8396005652872626  0.192797772282854  0.5623946420218908  1.0000
