data_image0
_chemical_formula_structural       NC8NH4C10H6C9H9Zn2C4O8
_chemical_formula_sum              "N2 C31 H19 Zn2 O8"
_cell_length_a       11.048855714531884
_cell_length_b       9.275150299802176
_cell_length_c       9.273585224739813
_cell_angle_alpha    85.81607574140205
_cell_angle_beta     90.102074716351
_cell_angle_gamma    89.4838956589931

_space_group_name_H-M_alt    "P 1"
_space_group_IT_number       1

loop_
  _space_group_symop_operation_xyz
  'x, y, z'

loop_
  _atom_site_type_symbol
  _atom_site_label
  _atom_site_symmetry_multiplicity
  _atom_site_fract_x
  _atom_site_fract_y
  _atom_site_fract_z
  _atom_site_occupancy
  N   N1        1.0  0.12547239702347615  0.5628588371804041  0.40130987513397764  1.0000
  C   C1        1.0  0.07127940410735813  0.504021566243241  0.31666123585156325  1.0000
  C   C2        1.0  0.0036632566768999317  0.43060942361786947  0.2110436256182342  1.0000
  C   C3        1.0  0.8759465028778339  0.4306092339831368  0.2110437284093032  1.0000
  C   C4        1.0  0.8135687544884013  0.35803805762135665  0.10663630037912819  1.0000
  C   C5        1.0  0.8773839293163462  0.2860409189109785  0.00305465472643251  1.0000
  C   C6        1.0  0.0037901426021227425  0.28604080896345324  0.0030546780121538677  1.0000
  C   C7        1.0  0.06682629252015639  0.3580381558235042  0.10663627210817306  1.0000
  C   C8        1.0  0.8075359824429891  0.5040216410792535  0.31666122229575566  1.0000
  N   N2        1.0  0.7527062828802129  0.5628588801641208  0.40130990367980357  1.0000
  H   H1        1.0  0.7155114294666851  0.35712929145346783  0.10532822655339436  1.0000
  H   H2        1.0  0.8287882135768531  0.23019826318990133  0.9227149345908847  1.0000
  H   H3        1.0  0.05299025397430168  0.2301983726589694  0.9227149333617019  1.0000
  H   H4        1.0  0.1648934419907313  0.3571292451722734  0.10532850191686594  1.0000
  C   C9        1.0  0.44229199099290295  0.1391777530257583  0.4037227055468471  1.0000
  C   C10       1.0  0.5057852296123158  0.22012512826111452  0.29468472245193  1.0000
  C   C11       1.0  0.5588909844808283  0.15281474230904293  0.1801055708396466  1.0000
  C   C12       1.0  0.5490419351030811  0.0035761381789927147  0.1730885706762053  1.0000
  C   C13       1.0  0.4881901000521088  0.9211783598912753  0.2814788127992809  1.0000
  C   C14       1.0  0.43589836855323677  0.9865289238908761  0.39890959933832004  1.0000
  C   C15       1.0  0.6223953823560424  0.23747899714519963  0.06857454518951345  1.0000
  C   C16       1.0  0.6755646193566838  0.3083879683462354  0.9751998305397492  1.0000
  C   C17       1.0  0.7378233282094566  0.3914273566024008  0.8658621119570822  1.0000
  C   C18       1.0  0.7909823133456105  0.4623310269954209  0.7725052965837857  1.0000
  H   H5        1.0  0.3852262958652426  0.40382023835403796  0.6325892556878012  1.0000
  H   H6        1.0  0.5116035358752684  0.3365960500511189  0.29691123899191996  1.0000
  H   H7        1.0  0.5894872378492578  0.950532753096489  0.08442838110048778  1.0000
  H   H8        1.0  0.4844798825889369  0.8051152592946109  0.2752564248132554  1.0000
  H   H9        1.0  0.3577404214872608  0.8595273608262075  0.7413433420716948  1.0000
  H   H10       1.0  0.8376603368384808  0.524590470904142  0.6905303019044609  1.0000
  C   C19       1.0  0.43849401434891155  0.558562641893025  0.9780889992726601  1.0000
  C   C20       1.0  0.5467469622778273  0.5264289753181806  0.0542283044781282  1.0000
  C   C21       1.0  0.6565398943920928  0.5072808467288752  0.982076702510839  1.0000
  C   C22       1.0  0.6570895268626905  0.5210775586390775  0.8299391088936265  1.0000
  C   C23       1.0  0.5501504903376416  0.5504985705484213  0.7528114927440082  1.0000
  C   C24       1.0  0.43969638824822993  0.5671440556306218  0.8245432959777546  1.0000
  C   C25       1.0  0.7689690992656217  0.47419434033324825  0.07377985292889244  1.0000
  C   C26       1.0  0.8643551828076477  0.3752012983940489  0.01410421538171858  1.0000
  C   C27       1.0  0.8882308181805519  0.5365200203248723  0.01709177909965431  1.0000
  H   H11       1.0  0.23886449739540083  0.5397209682201676  0.25948023154345035  1.0000
  H   H12       1.0  0.5462230040800069  0.5194661283713835  0.1714373634037596  1.0000
  H   H13       1.0  0.7392759475360777  0.5080413849659324  0.7690788349150073  1.0000
  H   H14       1.0  0.2588858935636049  0.6696579250615089  0.5352908687961921  1.0000
  H   H15       1.0  0.7610845545550081  0.46488938405788355  0.19359455533096903  1.0000
  H   H16       1.0  0.8483565128259976  0.33807475031929024  0.9047372640471423  1.0000
  H   H17       1.0  0.9150951120154176  0.30765032563200867  0.09800921525020634  1.0000
  H   H18       1.0  0.8866811150179544  0.5972081646269445  0.9095279097594471  1.0000
  H   H19       1.0  0.9529135290409926  0.5632788829515338  0.102747278516641  1.0000
  Zn  Zn1       1.0  0.3064786028737394  0.5628550633473961  0.4013182251578882  1.0000
  Zn  Zn2       1.0  0.5717002102014328  0.5628509399608876  0.4013134158706992  1.0000
  C   C28       1.0  0.43950977605109476  0.5597743004156828  0.6645779603685844  1.0000
  C   C29       1.0  0.43867191970095015  0.5659335247033002  0.13805381172405062  1.0000
  C   C30       1.0  0.4370925420213201  0.8263033125129042  0.39407618718935855  1.0000
  C   C31       1.0  0.44108907641754935  0.2994027799709924  0.4085556715891518  1.0000
  O   O1        1.0  0.5393818916223326  0.56839940115884  0.19173767473296754  1.0000
  O   O2        1.0  0.5400968749044  0.5573042017780814  0.6108900385258274  1.0000
  O   O3        1.0  0.5381435731709014  0.7725297649799721  0.3924579343420096  1.0000
  O   O4        1.0  0.5413351026222863  0.3531738471837689  0.41016967079749844  1.0000
  O   O5        1.0  0.33684361994574524  0.7725321561274163  0.3924619702251404  1.0000
  O   O6        1.0  0.33879690848527844  0.5573083255635126  0.6108939877171344  1.0000
  O   O7        1.0  0.3380819232016973  0.568403457100207  0.19173989143317294  1.0000
  O   O8        1.0  0.3400351344280548  0.3531778939012171  0.41017199561104234  1.0000
