data_image0
_chemical_formula_structural       NC9NC5H8C6NCOC6H11C6SCOC6H10Zn2C4O8
_chemical_formula_sum              "N3 C44 H29 O10 S1 Zn2"
_cell_length_a       17.807436237873137
_cell_length_b       10.29965916528486
_cell_length_c       10.30204148141511
_cell_angle_alpha    85.55947833871805
_cell_angle_beta     89.38796050765288
_cell_angle_gamma    88.40731929758992

_space_group_name_H-M_alt    "P 1"
_space_group_IT_number       1

loop_
  _space_group_symop_operation_xyz
  'x, y, z'

loop_
  _atom_site_type_symbol
  _atom_site_label
  _atom_site_symmetry_multiplicity
  _atom_site_fract_x
  _atom_site_fract_y
  _atom_site_fract_z
  _atom_site_occupancy
  N   N1        1.0  0.7077056934199633  0.38820738607874933  0.557874470372949  1.0000
  C   C1        1.0  0.6471124880480876  0.3530225571301564  0.5468418018225638  1.0000
  C   C2        1.0  0.57174120032376  0.3092565046800215  0.5331183600774598  1.0000
  C   C3        1.0  0.5536413761056359  0.23787977456536266  0.4281153498021315  1.0000
  C   C4        1.0  0.48045972884829047  0.19527484594928188  0.4147081265526979  1.0000
  C   C5        1.0  0.4243291231894683  0.22366914084914133  0.5062713497740168  1.0000
  C   C6        1.0  0.3465559138630176  0.17850595925333576  0.492105036660037  1.0000
  C   C7        1.0  0.28439273496390577  0.260250635792701  0.5180642104289104  1.0000
  C   C8        1.0  0.2110687471920459  0.21744267078847176  0.5046706013525848  1.0000
  C   C9        1.0  0.14785593066628963  0.30187848944646384  0.5309944493403698  1.0000
  N   N2        1.0  0.0970458134886604  0.36975904566483925  0.5521580949471718  1.0000
  C   C10       1.0  0.19932434977213662  0.09263206613706676  0.46529239279093204  1.0000
  C   C11       1.0  0.2606301567672717  0.010873540620282441  0.4393248267415686  1.0000
  C   C12       1.0  0.33383465188259465  0.05328704661941798  0.45251581611987857  1.0000
  C   C13       1.0  0.4431204292006545  0.29554014642776183  0.6114936989288899  1.0000
  C   C14       1.0  0.5163549207017357  0.33795474013596327  0.6247452445026693  1.0000
  H   H1        1.0  0.5960351036514607  0.21541989782726786  0.35641076800968086  1.0000
  H   H2        1.0  0.46754100619686056  0.14162275691393897  0.3317883920639668  1.0000
  H   H3        1.0  0.2929059807266841  0.3577025086592318  0.546965825841482  1.0000
  H   H4        1.0  0.1428538333526256  0.05860073712954116  0.45468903614790124  1.0000
  H   H5        1.0  0.2514187534227629  0.9142421535787992  0.4092233141006934  1.0000
  H   H6        1.0  0.3804648244408868  0.9875506441692641  0.4334507460745723  1.0000
  H   H7        1.0  0.4014434399891122  0.31746054627359643  0.6844923336212663  1.0000
  H   H8        1.0  0.5298022433071757  0.39282773391263487  0.7066239587246446  1.0000
  C   C15       1.0  0.902313264719539  0.9976255437991149  0.5549017699277041  1.0000
  C   C16       1.0  0.9028290424456411  0.0069293316208023335  0.41810959679874005  1.0000
  C   C17       1.0  0.9041966711814416  0.8947277562803834  0.34926971621287023  1.0000
  C   C18       1.0  0.9029705780731022  0.7717322299312674  0.4184038350539536  1.0000
  C   C19       1.0  0.9024454030543928  0.7603305477290178  0.5551419349932649  1.0000
  C   C20       1.0  0.9023840670338031  0.8738726652769778  0.6226152164989927  1.0000
  N   N3        1.0  0.9035698831404473  0.9078786574849212  0.20924492588595012  1.0000
  C   C21       1.0  0.9387880216836437  0.8151085886978706  0.12902003254163  1.0000
  O   O1        1.0  0.9906116942091995  0.739818107103375  0.17522641301967012  1.0000
  C   C22       1.0  0.9169568355215649  0.8099942674724384  0.9910060871878184  1.0000
  C   C23       1.0  0.8474912084496248  0.863159123156037  0.9456908596072071  1.0000
  C   C24       1.0  0.8273651951338098  0.8571445513224343  0.8154936867434054  1.0000
  C   C25       1.0  0.8760050813488306  0.7977824088428649  0.729342555281284  1.0000
  C   C26       1.0  0.9448094301367136  0.7438618418640666  0.7732915886518237  1.0000
  C   C27       1.0  0.9652222456459583  0.7495065276217191  0.9033801000718253  1.0000
  H   H9        1.0  0.900623291774287  0.1873734441585191  0.8129461857965938  1.0000
  H   H10       1.0  0.9027446450746535  0.10156125684206141  0.3643002162683415  1.0000
  H   H11       1.0  0.9011068955598659  0.6850482095466576  0.3656380048746266  1.0000
  H   H12       1.0  0.9019965060264866  0.8658346307889945  0.728066397980184  1.0000
  H   H13       1.0  0.9012444716511648  0.42855513957283414  0.6076089899756021  1.0000
  H   H14       1.0  0.8821362001124791  0.9950431007378415  0.1636297596944789  1.0000
  H   H15       1.0  0.8081212736183286  0.9076991048384536  0.010736408945472897  1.0000
  H   H16       1.0  0.7738265809143213  0.8981267612442821  0.7815020090945013  1.0000
  H   H17       1.0  0.8602762682839281  0.7932053495578534  0.6286392273325094  1.0000
  H   H18       1.0  0.9824019251392084  0.6976109181475162  0.7065088225635909  1.0000
  H   H19       1.0  0.018949070882677613  0.707330048088191  0.9351508169030206  1.0000
  C   C28       1.0  0.9023934476526831  0.3791066609578489  0.17373466774829027  1.0000
  C   C29       1.0  0.9368557709358625  0.5005692699799149  0.16235479280661003  1.0000
  C   C30       1.0  0.9543372318958819  0.5604656319573724  0.03973209447621694  1.0000
  C   C31       1.0  0.9369270010319672  0.5001620416849035  0.9272482068613601  1.0000
  C   C32       1.0  0.9023652548843569  0.3788494439981476  0.9363090905065743  1.0000
  C   C33       1.0  0.8853328087309712  0.3188932515593368  0.0601186106482583  1.0000
  S   S1        1.0  0.9990325834245778  0.7148770728552626  0.02660303082851124  1.0000
  C   C34       1.0  0.09156431515083363  0.6406935087324933  0.02779072405936867  1.0000
  O   O2        1.0  0.12096100061081418  0.6161283720308128  0.9202914971322085  1.0000
  C   C35       1.0  0.1329673992519229  0.6073897273685773  0.1506973985528548  1.0000
  C   C36       1.0  0.19959927801293698  0.530510815047707  0.14988797144345  1.0000
  C   C37       1.0  0.2387497448764797  0.4977596964462498  0.2652554262294562  1.0000
  C   C38       1.0  0.2120657029439379  0.5413706217332661  0.38259821911718483  1.0000
  C   C39       1.0  0.1462412345959112  0.6180524689623221  0.3847760081232978  1.0000
  C   C40       1.0  0.10686659591640098  0.6511883356038408  0.26971136940515406  1.0000
  H   H20       1.0  0.8373254311313196  0.15028932756343805  0.402493793571398  1.0000
  H   H21       1.0  0.950359942376221  0.548856036350261  0.24848638935567235  1.0000
  H   H22       1.0  0.9507495409563598  0.548102200039998  0.8330893236999933  1.0000
  H   H23       1.0  0.8587665578319554  0.22525393538976687  0.06797110270019968  1.0000
  H   H24       1.0  0.8894299862519195  0.3325468153302895  0.612424848688494  1.0000
  H   H25       1.0  0.22129402259451814  0.4950257395314252  0.06023985603128779  1.0000
  H   H26       1.0  0.2898070364149411  0.43835726526563135  0.26364069140746205  1.0000
  H   H27       1.0  0.24244049894914751  0.5158807384343298  0.47180668708467427  1.0000
  H   H28       1.0  0.12571279689839043  0.6520952750391535  0.47576059743616983  1.0000
  H   H29       1.0  0.056379582122252574  0.7115057800579452  0.27454528892048713  1.0000
  Zn  Zn1       1.0  0.8200608397911187  0.3828801258262684  0.5562323559972933  1.0000
  Zn  Zn2       1.0  0.984690646691204  0.3750757164596856  0.5538108803133694  1.0000
  C   C41       1.0  0.9023679919516392  0.3737246359663506  0.7921645663794551  1.0000
  C   C42       1.0  0.902385292562248  0.3842327596232957  0.31787877144391863  1.0000
  C   C43       1.0  0.9024167603271709  0.6161650228198767  0.5499225512689838  1.0000
  C   C44       1.0  0.9023364677371701  0.14179081515360115  0.5601208561131146  1.0000
  O   O3        1.0  0.9648587084008863  0.3829857269093238  0.3653359102302187  1.0000
  O   O4        1.0  0.9648447901198179  0.3690473229856836  0.7428692095037408  1.0000
  O   O5        1.0  0.9648833289414304  0.5648210409172936  0.5472570812127198  1.0000
  O   O6        1.0  0.9648201134074846  0.18721202096360878  0.5609479419966483  1.0000
  O   O7        1.0  0.8399313168947654  0.5707438239870231  0.5490952951335162  1.0000
  O   O8        1.0  0.8398927783426261  0.3749716663362588  0.7447073546853145  1.0000
  O   O9        1.0  0.8399066967235788  0.3889100255294241  0.3671724943306922  1.0000
  O   O10       1.0  0.8398681017218936  0.1931363102624923  0.5627846234412154  1.0000
