data_image0
_chemical_formula_structural       NC12NC2H8C6NCH9C6OCH7Zn2C4O8
_chemical_formula_sum              "N3 C32 H24 O9 Zn2"
_cell_length_a       19.240039667572717
_cell_length_b       9.273386996610926
_cell_length_c       9.273891588657152
_cell_angle_alpha    85.97842517681073
_cell_angle_beta     89.6801242657702
_cell_angle_gamma    89.39858615406628

_space_group_name_H-M_alt    "P 1"
_space_group_IT_number       1

loop_
  _space_group_symop_operation_xyz
  'x, y, z'

loop_
  _atom_site_type_symbol
  _atom_site_label
  _atom_site_symmetry_multiplicity
  _atom_site_fract_x
  _atom_site_fract_y
  _atom_site_fract_z
  _atom_site_occupancy
  N   N1        1.0  0.6508475188498537  0.5644990160239103  0.4075049615718531  1.0000
  C   C1        1.0  0.5906991498098714  0.5644991084952766  0.40750487048173567  1.0000
  C   C2        1.0  0.5158811124271646  0.5644992374090849  0.40750471788090414  1.0000
  C   C3        1.0  0.4794552900322798  0.4939222662312326  0.5223941685175835  1.0000
  C   C4        1.0  0.40678490169358716  0.4937999587805288  0.5224904181827927  1.0000
  C   C5        1.0  0.3695488776615977  0.5644993379573913  0.40750446501812476  1.0000
  C   C6        1.0  0.40668853037599506  0.6351989267968547  0.2925187274316752  1.0000
  C   C7        1.0  0.47935957955132047  0.6350763589651891  0.29261511347942015  1.0000
  C   C8        1.0  0.2923437879534667  0.5644992496209404  0.40750435926087647  1.0000
  C   C9        1.0  0.2556647820603721  0.4391014048779646  0.45417863063674635  1.0000
  C   C10       1.0  0.1829937707958002  0.43921924210483576  0.45407707964058774  1.0000
  C   C11       1.0  0.14601150157059328  0.5644991067375265  0.40750442709508405  1.0000
  C   C12       1.0  0.07119346429907418  0.5644989828736204  0.40750470327967103  1.0000
  N   N2        1.0  0.011045147043179802  0.5644989396101343  0.40750493467069315  1.0000
  C   C13       1.0  0.1819767429368596  0.6897790550747758  0.3609317157117533  1.0000
  C   C14       1.0  0.2546471157567404  0.6898970907636321  0.36082998393390286  1.0000
  H   H1        1.0  0.5072051773739525  0.43928681838870437  0.612095829750043  1.0000
  H   H2        1.0  0.3797187468539747  0.4400622349136101  0.6134287108179586  1.0000
  H   H3        1.0  0.3795681544300162  0.6889366802063743  0.2015803783129575  1.0000
  H   H4        1.0  0.5070394633980542  0.6897116981900968  0.20291375852316018  1.0000
  H   H5        1.0  0.2831640129316061  0.34037415774313406  0.4889305774942303  1.0000
  H   H6        1.0  0.1556766980866166  0.3415011952969353  0.48997386795049075  1.0000
  H   H7        1.0  0.1538639922918378  0.7874970747712748  0.3250349435949422  1.0000
  H   H8        1.0  0.2813343633941112  0.7886244254045552  0.32607798724384374  1.0000
  C   C15       1.0  0.8330850232750882  0.14085139679799433  0.40821321890130435  1.0000
  C   C16       1.0  0.8456453180921525  0.22315056992945337  0.2778876387202698  1.0000
  C   C17       1.0  0.8516615259351497  0.15747118264798865  0.14755400354121884  1.0000
  C   C18       1.0  0.8452121699277119  0.007140365943292926  0.14421362027176965  1.0000
  C   C19       1.0  0.8338779422383581  0.923874191626086  0.2740864783759316  1.0000
  C   C20       1.0  0.8288143235373525  0.988135579595104  0.4068091503639586  1.0000
  N   N3        1.0  0.8506481894330077  0.9364002641369745  0.011189118402022304  1.0000
  C   C21       1.0  0.8626113369592564  0.01302708241728245  0.870532920348202  1.0000
  H   H9        1.0  0.8466373297232861  0.40513222006455035  0.6448532744118896  1.0000
  H   H10       1.0  0.8491951551501852  0.3397805001397583  0.2761192781410815  1.0000
  H   H11       1.0  0.8606943706569133  0.22518951147199506  0.04964696621603571  1.0000
  H   H12       1.0  0.830603574377026  0.8074525970147606  0.27181264311538134  1.0000
  H   H13       1.0  0.8534445458264187  0.8599426195483019  0.7578737435319858  1.0000
  H   H14       1.0  0.8457262434286235  0.8240601225900299  0.014178033312433726  1.0000
  H   H15       1.0  0.8195929544126369  0.09137458719959501  0.8454894451317481  1.0000
  H   H16       1.0  0.9129171094174214  0.07058092340612297  0.8707655005943833  1.0000
  H   H17       1.0  0.8645968642614326  0.9348202238288823  0.78520220747053  1.0000
  C   C22       1.0  0.8321075501786556  0.5606727108852836  0.9842421699660976  1.0000
  C   C23       1.0  0.888718920875771  0.6216073338178911  0.05271488216086806  1.0000
  C   C24       1.0  0.9413335837212549  0.693314603620854  0.9727862968587391  1.0000
  C   C25       1.0  0.9375244903501788  0.7044487456689756  0.8213272334212198  1.0000
  C   C26       1.0  0.8823777172742385  0.6426405929685504  0.7515137707022164  1.0000
  C   C27       1.0  0.8297917957948097  0.568314230050134  0.8307801476739107  1.0000
  O   O1        1.0  0.9960558044303708  0.7524729830412333  0.04789486062985815  1.0000
  C   C28       1.0  0.05290727030917219  0.8283973391630046  0.980692660825823  1.0000
  H   H18       1.0  0.6672352076971445  0.4720654558544122  0.09540627215275954  1.0000
  H   H19       1.0  0.9772843162016029  0.75953794333639  0.7563137990193862  1.0000
  H   H20       1.0  0.881779431680766  0.650075860310965  0.6344202730991584  1.0000
  H   H21       1.0  0.7198755035494364  0.5029396936847171  0.5554458534662485  1.0000
  H   H22       1.0  0.033758426929067165  0.9260233548842904  0.9161353021427918  1.0000
  H   H23       1.0  0.08224811064333948  0.7567983466976099  0.910398640705611  1.0000
  H   H24       1.0  0.08831153099325384  0.8628806359736285  0.06547905551454636  1.0000
  Zn  Zn1       1.0  0.7547927794990563  0.5644952174183926  0.4075132713526788  1.0000
  Zn  Zn2       1.0  0.9070999323011469  0.5644910765236972  0.40750840776674724  1.0000
  C   C29       1.0  0.8302569523825624  0.5611226271434965  0.6707758858417481  1.0000
  C   C30       1.0  0.8316374130450134  0.5678654883081016  0.14424593167893485  1.0000
  C   C31       1.0  0.8296337232039965  0.8279289994394268  0.40133077062443046  1.0000
  C   C32       1.0  0.8322605987780652  0.3010573834288308  0.4136911266159673  1.0000
  O   O2        1.0  0.8892794331849673  0.5702715848220079  0.19794282048666179  1.0000
  O   O3        1.0  0.8882125436924888  0.5587122957059316  0.6170748925687954  1.0000
  O   O4        1.0  0.887708494980557  0.7741618291121238  0.39949605320094483  1.0000
  O   O5        1.0  0.8897834301684047  0.35482206076181044  0.41552155176608174  1.0000
  O   O6        1.0  0.7721092296568551  0.7741642331831944  0.39950012734742035  1.0000
  O   O7        1.0  0.7726132698393573  0.5587164323632574  0.6170788869896315  1.0000
  O   O8        1.0  0.7736801643720096  0.5702756555632077  0.19794508204278327  1.0000
  O   O9        1.0  0.7741841611089978  0.35482612215993065  0.41552392140470995  1.0000
