data_image0
_chemical_formula_structural       NC12NC2H8C12NCOCH13C13F3H9Zn2C4O8
_chemical_formula_sum              "N3 C45 H30 O9 F3 Zn2"
_cell_length_a       17.80743265337812
_cell_length_b       10.299155265289647
_cell_length_c       10.2985328690268
_cell_angle_alpha    85.56203192291568
_cell_angle_beta     91.53993439614001
_cell_angle_gamma    89.4139958816946

_space_group_name_H-M_alt    "P 1"
_space_group_IT_number       1

loop_
  _space_group_symop_operation_xyz
  'x, y, z'

loop_
  _atom_site_type_symbol
  _atom_site_label
  _atom_site_symmetry_multiplicity
  _atom_site_fract_x
  _atom_site_fract_y
  _atom_site_fract_z
  _atom_site_occupancy
  N   N1        1.0  0.7070230308980776  0.40631181956242723  0.6008460968056799  1.0000
  C   C1        1.0  0.6561923250061377  0.43584919024136637  0.532134724516048  1.0000
  C   C2        1.0  0.5929539131168422  0.47259153658525405  0.4466664265325764  1.0000
  C   C3        1.0  0.604660617592624  0.5265726872818985  0.3200235179551971  1.0000
  C   C4        1.0  0.5433300436558808  0.5618121531549158  0.23695177687008548  1.0000
  C   C5        1.0  0.4701383620372141  0.54333372533442  0.27986292665914453  1.0000
  C   C6        1.0  0.4574549403250785  0.4892339243572493  0.40697404047733143  1.0000
  C   C7        1.0  0.5196428285851661  0.45399770692452984  0.49002926792703916  1.0000
  C   C8        1.0  0.37969548026160493  0.4696422713468516  0.45274597668794886  1.0000
  C   C9        1.0  0.36091192913407216  0.49687493457316406  0.5797905835739428  1.0000
  C   C10       1.0  0.28769029497474363  0.4784380974841911  0.6227422870787103  1.0000
  C   C11       1.0  0.2323093548201277  0.43251459632716993  0.5394874761015211  1.0000
  C   C12       1.0  0.15695133184971502  0.41352537641202336  0.5838403502334771  1.0000
  N   N2        1.0  0.096368817949661  0.39825932069179704  0.6194970098623567  1.0000
  C   C13       1.0  0.25040148668342366  0.405113195901999  0.41298592023159997  1.0000
  C   C14       1.0  0.3235702453157757  0.42356473063031436  0.36977830958386515  1.0000
  H   H1        1.0  0.661120676595562  0.5413856577905449  0.28558019429794834  1.0000
  H   H2        1.0  0.5525121686946196  0.603878561576149  0.13915473617521945  1.0000
  H   H3        1.0  0.4234879992630143  0.5729487923337266  0.21425967245362806  1.0000
  H   H4        1.0  0.5111593909385462  0.4105458356781749  0.5877022467941881  1.0000
  H   H5        1.0  0.40258435693318695  0.5340800060935554  0.6453572754860557  1.0000
  H   H6        1.0  0.2742485901735093  0.5003195149147774  0.7207511124497155  1.0000
  H   H7        1.0  0.20801192159255952  0.3691756516506294  0.34783185040830256  1.0000
  H   H8        1.0  0.3364839227837693  0.4001477485545525  0.2720732726178918  1.0000
  C   C15       1.0  0.9017834364551988  0.020886321467565642  0.610294439594117  1.0000
  C   C16       1.0  0.8889425704159933  0.030821545576034785  0.4747447165216163  1.0000
  C   C17       1.0  0.8823592143269633  0.9187227086916022  0.405896933609966  1.0000
  C   C18       1.0  0.8887629216190666  0.7955654220678974  0.47442830448516293  1.0000
  C   C19       1.0  0.901615631637271  0.7836747375980474  0.6100601911827244  1.0000
  C   C20       1.0  0.9080501053065512  0.8968538044602223  0.6771584122846552  1.0000
  C   C21       1.0  0.8687760559793787  0.9302066262751368  0.2625017385660784  1.0000
  C   C22       1.0  0.9068715692518478  0.023511267622538627  0.18290335133280822  1.0000
  C   C23       1.0  0.8940951039718475  0.0341873855246906  0.0479592142650933  1.0000
  C   C24       1.0  0.843434783097551  0.9508802398809221  0.9897779745632923  1.0000
  C   C25       1.0  0.8044215965195297  0.8594108481034373  0.06926423818429961  1.0000
  C   C26       1.0  0.8172254220457729  0.8484781364882619  0.20417234782080437  1.0000
  N   N3        1.0  0.8282404819694872  0.9614044394151998  0.8514794614289708  1.0000
  C   C27       1.0  0.8830902166756509  0.9971843775904676  0.7558823496011317  1.0000
  O   O1        1.0  0.9520122149921706  0.9982995300557853  0.7870442880306596  1.0000
  C   C28       1.0  0.859115463400506  0.024095696787376237  0.6161843245336364  1.0000
  H   H9        1.0  0.9067459017332467  0.3445405126181995  0.662428083513275  1.0000
  H   H10       1.0  0.8829957621795884  0.12597793515468547  0.4226465915504998  1.0000
  H   H11       1.0  0.8847186495833792  0.7088380998392525  0.4216024486657019  1.0000
  H   H12       1.0  0.9179570626903157  0.8884756409730437  0.7817104220183542  1.0000
  H   H13       1.0  0.9263242979943165  0.5539390421920509  0.865949004184831  1.0000
  H   H14       1.0  0.9469902714409208  0.08773894852101251  0.22492027990224628  1.0000
  H   H15       1.0  0.9229127273309353  0.10903355790741132  0.9897550747831619  1.0000
  H   H16       1.0  0.7642307477684901  0.7958885138507116  0.02637675711554176  1.0000
  H   H17       1.0  0.7859938164121854  0.7772984265167588  0.26309385562445753  1.0000
  H   H18       1.0  0.7753246119393754  0.933623254022352  0.8178690147220793  1.0000
  H   H19       1.0  0.8048847941033022  0.07866196257152971  0.6091325563786076  1.0000
  H   H20       1.0  0.852161041355066  0.9306196826604111  0.5706239608983772  1.0000
  H   H21       1.0  0.9018803866556093  0.08328999138105742  0.5628337413420041  1.0000
  C   C29       1.0  0.901677955650206  0.4021590039327536  0.22877884323864395  1.0000
  C   C30       1.0  0.9770189363972895  0.35970639264289184  0.2346131479982312  1.0000
  C   C31       1.0  0.015194749606887601  0.3383140123383424  0.12039854209086219  1.0000
  C   C32       1.0  0.9770632318432627  0.3599611122984391  0.9993145175610343  1.0000
  C   C33       1.0  0.9017210830182486  0.4024020420432426  0.9915758110940586  1.0000
  C   C34       1.0  0.8645095937532817  0.4232247864698153  0.10682847141304874  1.0000
  C   C35       1.0  0.09484810474379768  0.2934436669434349  0.12750122589896495  1.0000
  C   C36       1.0  0.14671039334225133  0.3469755620755595  0.0384277355242213  1.0000
  C   C37       1.0  0.22167485681575472  0.3048486802220318  0.04513376803794687  1.0000
  C   C38       1.0  0.24614151560221506  0.20693934152096438  0.13980618754483443  1.0000
  C   C39       1.0  0.1947136992822287  0.15521764090954693  0.23047727796133374  1.0000
  C   C40       1.0  0.11975411889578334  0.1973774791985865  0.22388239054061482  1.0000
  C   C41       1.0  0.327603201536415  0.1649650042568194  0.15000392980532995  1.0000
  F   F1        1.0  0.3661137002627233  0.2434889864713834  0.23130986309718587  1.0000
  F   F2        1.0  0.35959521258018645  0.17547734128418682  0.028675923849295955  1.0000
  F   F3        1.0  0.33458884573914194  0.0366898949121819  0.20026264951883352  1.0000
  H   H22       1.0  0.7594545343035509  0.48319428017471244  0.4250227136157542  1.0000
  H   H23       1.0  0.006442437078007178  0.3449372586996527  0.32810582862017296  1.0000
  H   H24       1.0  0.005919354311525014  0.3419814945944378  0.9110712920244745  1.0000
  H   H25       1.0  0.8064425661694878  0.45593860889726284  0.10159872310060324  1.0000
  H   H26       1.0  0.7592142467513808  0.48185952673307136  0.769677328931063  1.0000
  H   H27       1.0  0.1295740064298485  0.42309986235431385  0.9648550940128894  1.0000
  H   H28       1.0  0.26061394337613053  0.3492729882672228  0.9765003755744476  1.0000
  H   H29       1.0  0.21245007364283475  0.08197268199105956  0.3065206813120518  1.0000
  H   H30       1.0  0.08108541135762959  0.15390167676065894  0.2935481290985415  1.0000
  Zn  Zn1       1.0  0.8193798192342499  0.4039845771620596  0.6062358360095307  1.0000
  Zn  Zn2       1.0  0.984012030049565  0.4005759721672882  0.6141178677839993  1.0000
  C   C42       1.0  0.9017123953952677  0.39718203136096775  0.8473923516194216  1.0000
  C   C43       1.0  0.9016812513138164  0.40738011953676834  0.3729615652187622  1.0000
  C   C44       1.0  0.9016431699128139  0.6394898936890472  0.6049287227684115  1.0000
  C   C45       1.0  0.9017504209660475  0.165070697967451  0.615425261103353  1.0000
  O   O2        1.0  0.964159424631753  0.40783315960644223  0.42434179556152846  1.0000
  O   O3        1.0  0.9641862609505396  0.39414095905064084  0.8019940274415333  1.0000
  O   O4        1.0  0.9641295183536095  0.5898076401496192  0.6062028909359912  1.0000
  O   O5        1.0  0.9642161110433112  0.21216648893052414  0.6201328319923971  1.0000
  O   O6        1.0  0.8391756820596092  0.5923940615634248  0.60022086910455  1.0000
  O   O7        1.0  0.8392324243058675  0.39672894087028543  0.7960119358799291  1.0000
  O   O8        1.0  0.8392055879587117  0.41042109566801344  0.4183581424944849  1.0000
  O   O9        1.0  0.8392622743747473  0.21475441573363677  0.6141492763034446  1.0000
