data_image0
_chemical_formula_structural       NC8NH4C10H5C6IH3Zn2C4O8
_chemical_formula_sum              "N2 C28 H12 I1 Zn2 O8"
_cell_length_a       14.927258825633057
_cell_length_b       9.275150299802176
_cell_length_c       9.275433903346869
_cell_angle_alpha    85.8435202653109
_cell_angle_beta     89.9656238394683
_cell_angle_gamma    89.48389196497259

_space_group_name_H-M_alt    "P 1"
_space_group_IT_number       1

loop_
  _space_group_symop_operation_xyz
  'x, y, z'

loop_
  _atom_site_type_symbol
  _atom_site_label
  _atom_site_symmetry_multiplicity
  _atom_site_fract_x
  _atom_site_fract_y
  _atom_site_fract_z
  _atom_site_occupancy
  N   N1        1.0  0.8354216400265417  0.562056400846288  0.4016890077235986  1.0000
  C   C1        1.0  0.757895215822879  0.5620563744854663  0.4016890175221506  1.0000
  C   C2        1.0  0.6614625740549256  0.5620563747815741  0.4016890725846176  1.0000
  C   C3        1.0  0.6149433786262659  0.4727472742156371  0.31248475101634776  1.0000
  C   C4        1.0  0.5212320675854559  0.47274718404080057  0.31248472307199826  1.0000
  C   C5        1.0  0.47364657638721935  0.5620564269142616  0.4016889844988465  1.0000
  C   C6        1.0  0.5201657718085525  0.6513655366498567  0.4908931979794245  1.0000
  C   C7        1.0  0.6138771498409127  0.6513656268217891  0.49089322592971296  1.0000
  C   C8        1.0  0.3772139352138195  0.5620563286659761  0.4016889301350943  1.0000
  N   N2        1.0  0.2996875104082769  0.5620564100192056  0.4016889412721736  1.0000
  H   H1        1.0  0.6510543078921454  0.4032595580455105  0.24307880259965023  1.0000
  H   H2        1.0  0.4859506520997983  0.40325953539515513  0.2430788999281632  1.0000
  H   H3        1.0  0.4840548425426731  0.7208532528199834  0.5602991463961216  1.0000
  H   H4        1.0  0.6491584983423468  0.7208532663006808  0.5602991571553011  1.0000
  C   C9        1.0  0.06992153297247383  0.13837650534174495  0.4041012378777804  1.0000
  C   C10       1.0  0.11707957021054693  0.21926915168111272  0.2950891145291954  1.0000
  C   C11       1.0  0.15655721510898024  0.15190125654045428  0.18053713802088844  1.0000
  C   C12       1.0  0.14927754860259546  0.0026591313835235856  0.1735218032556265  1.0000
  C   C13       1.0  0.10407558510232806  0.9203157567149186  0.28188633905298666  1.0000
  C   C14       1.0  0.06519623698840912  0.9857252610358704  0.3992892739685834  1.0000
  C   C15       1.0  0.20372720755832963  0.23650953126154062  0.06903256350074427  1.0000
  C   C16       1.0  0.24322041000716643  0.30737163543824336  0.9756799939596866  1.0000
  C   C17       1.0  0.2894651175153422  0.390356144452898  0.8663682063335334  1.0000
  C   C18       1.0  0.32895070520947683  0.4612129568056691  0.773033531823887  1.0000
  H   H5        1.0  0.12138286278880672  0.3357411905145231  0.2973151023958489  1.0000
  H   H6        1.0  0.17934576352447795  0.9495712463176724  0.0848826415577475  1.0000
  H   H7        1.0  0.10133858025763896  0.8042495334622444  0.27566542743136213  1.0000
  H   H8        1.0  0.006837723628903893  0.858895565509265  0.7416417935013222  1.0000
  H   H9        1.0  0.36362234499383944  0.5234312554848206  0.6910779786515624  1.0000
  C   C19       1.0  0.06774125021741328  0.557547775707675  0.9785684982194773  1.0000
  C   C20       1.0  0.1502780394846246  0.5548467519297855  0.052038693634222526  1.0000
  C   C21       1.0  0.23092289557683537  0.5654407446089704  0.9758597821912997  1.0000
  C   C22       1.0  0.23032181092265525  0.5790725976496116  0.8252367253252753  1.0000
  C   C23       1.0  0.14931503284141007  0.5795928135464148  0.7502583927945228  1.0000
  C   C24       1.0  0.06737653842836598  0.5665539725941782  0.8248219768227072  1.0000
  I   I1        1.0  0.353641964941807  0.5635254522356901  0.08865503925987994  1.0000
  H   H10       1.0  0.8537153074450964  0.6430224040465502  0.07557273348963123  1.0000
  H   H11       1.0  0.29275223012660256  0.5878921354007993  0.7659757021226321  1.0000
  H   H12       1.0  0.9228682954982862  0.6180336026639304  0.5400541205235925  1.0000
  Zn  Zn1       1.0  0.9693987681540212  0.5620526184572447  0.4016973398260124  1.0000
  Zn  Zn2       1.0  0.16571045632609516  0.5620484739796541  0.4016925083222651  1.0000
  C   C25       1.0  0.06747553642027304  0.5591039720196425  0.6648946144215842  1.0000
  C   C26       1.0  0.06763582156481429  0.5649989422935313  0.1384953647593965  1.0000
  C   C27       1.0  0.06608730449724987  0.8254972237613329  0.3944570082675674  1.0000
  C   C28       1.0  0.06902399613369382  0.2986039579602666  0.408933057578732  1.0000
  O   O1        1.0  0.1420997364207648  0.5674917547315421  0.19216648433422967  1.0000
  O   O2        1.0  0.14200765679201677  0.5566069211868079  0.6112194192480049  1.0000
  O   O3        1.0  0.14088563702620904  0.7717228569369117  0.39283913039317153  1.0000
  O   O4        1.0  0.14322168918769607  0.35237582815400015  0.41054666509543153  1.0000
  O   O5        1.0  0.9918874683008703  0.7717252642858028  0.3928431830469068  1.0000
  O   O6        1.0  0.9930094784292719  0.5566110611301776  0.6112233852304816  1.0000
  O   O7        1.0  0.9931015591445546  0.5674958259613372  0.1921687182365761  1.0000
  O   O8        1.0  0.9942235119188122  0.3523798902141375  0.4105490070854705  1.0000
