data_image0
_chemical_formula_structural       NC12NC2H8C9H10C6SCNH5Zn2C4O8
_chemical_formula_sum              "N3 C34 H23 S1 Zn2 O8"
_cell_length_a       17.80743265337812
_cell_length_b       10.297183801781406
_cell_length_c       9.275272990362726
_cell_angle_alpha    85.0175468538479
_cell_angle_beta     91.20895717805207
_cell_angle_gamma    89.43536064670782

_space_group_name_H-M_alt    "P 1"
_space_group_IT_number       1

loop_
  _space_group_symop_operation_xyz
  'x, y, z'

loop_
  _atom_site_type_symbol
  _atom_site_label
  _atom_site_symmetry_multiplicity
  _atom_site_fract_x
  _atom_site_fract_y
  _atom_site_fract_z
  _atom_site_occupancy
  N   N1        1.0  0.7119115064816655  0.41960848114162164  0.44526177932721794  1.0000
  C   C1        1.0  0.6613124261322973  0.44979086713820343  0.3689168527320945  1.0000
  C   C2        1.0  0.5983621275982786  0.487335531662771  0.2739533737955937  1.0000
  C   C3        1.0  0.6104956462267791  0.5425054265601312  0.13324103482246752  1.0000
  C   C4        1.0  0.5494450058964873  0.5785246180289239  0.04094044508693772  1.0000
  C   C5        1.0  0.47610866427380033  0.5596433632686049  0.08861885499823785  1.0000
  C   C6        1.0  0.46299686774232  0.504350439567457  0.22985140012991637  1.0000
  C   C7        1.0  0.524904877240757  0.46833465078092584  0.32213364232114716  1.0000
  C   C8        1.0  0.3850831288843818  0.4843291280264097  0.2807083973570521  1.0000
  C   C9        1.0  0.3658887958670442  0.5103856943311896  0.42185250005611286  1.0000
  C   C10       1.0  0.2925223776065122  0.4915456615187855  0.46957595847566735  1.0000
  C   C11       1.0  0.2374046327402686  0.4463872155611186  0.3770864962466738  1.0000
  C   C12       1.0  0.1618971130025377  0.4269816567678493  0.4263667807210565  1.0000
  N   N2        1.0  0.10119441397966542  0.41138089322497073  0.46598473929847767  1.0000
  C   C13       1.0  0.25590572969556863  0.4201568273198224  0.23654576374788183  1.0000
  C   C14       1.0  0.3292201147292882  0.43901394082552647  0.18853798499440422  1.0000
  H   H1        1.0  0.6670718148389118  0.5576417287423852  0.09497119665789056  1.0000
  H   H2        1.0  0.5589568095701263  0.6215090833143495  0.9322785458767258  1.0000
  H   H3        1.0  0.4296797516252139  0.5898745539081487  0.015727092822193308  1.0000
  H   H4        1.0  0.5160918718049424  0.4239655970290646  0.43065795436695375  1.0000
  H   H5        1.0  0.4073541680464632  0.5469884619303576  0.49469168540129593  1.0000
  H   H6        1.0  0.2787639607022829  0.5125199525959081  0.57846171297556  1.0000
  H   H7        1.0  0.21372213794929984  0.3848180050573212  0.16416478260774459  1.0000
  H   H8        1.0  0.3424491800909551  0.4165009499195471  0.07999001993428423  1.0000
  C   C15       1.0  0.9065585919692601  0.03401735570185482  0.4558280280573481  1.0000
  C   C16       1.0  0.9048092614517975  0.045151193549975106  0.3038669665164875  1.0000
  C   C17       1.0  0.9039128545262682  0.9342389005472431  0.2260128616283443  1.0000
  C   C18       1.0  0.9048021687084866  0.8099850445972839  0.3032779713027878  1.0000
  C   C19       1.0  0.906554495316707  0.7969617983630773  0.4554312830858683  1.0000
  C   C20       1.0  0.9074205550397193  0.9094624233969648  0.5307130514564145  1.0000
  C   C21       1.0  0.9020206222203561  0.9557131315584186  0.061656232308322956  1.0000
  C   C22       1.0  0.8582700956012389  0.8585752097877594  0.97898820984827  1.0000
  C   C23       1.0  0.9438594909203805  0.8571118155487  0.9789597672485835  1.0000
  H   H9        1.0  0.9072397975865452  0.35726543410215167  0.514383878931802  1.0000
  H   H10       1.0  0.904134081095488  0.14087183123900004  0.24520162122761466  1.0000
  H   H11       1.0  0.904143915647568  0.7228634961194731  0.24624165429247125  1.0000
  H   H12       1.0  0.9087698237780447  0.9001449987862207  0.6479541814666443  1.0000
  H   H13       1.0  0.9098541687083428  0.5651483142318522  0.7428055149673558  1.0000
  H   H14       1.0  0.9014131151111994  0.056871520252664405  0.008829159057890609  1.0000
  H   H15       1.0  0.8330141904086334  0.774936576086419  0.04332185842352354  1.0000
  H   H16       1.0  0.8320659562518771  0.9008336295808561  0.8754845765276973  1.0000
  H   H17       1.0  0.9705945450316679  0.7725850420555586  0.04327689175752681  1.0000
  H   H18       1.0  0.96767859037325  0.8985125892459952  0.8754381790939485  1.0000
  C   C24       1.0  0.90778561195713  0.41891527503337267  0.031888725405394336  1.0000
  C   C25       1.0  0.8505497003687368  0.4871968306582768  0.09656064236176642  1.0000
  C   C26       1.0  0.7907176634012981  0.5442596822859388  0.013700275217312317  1.0000
  C   C27       1.0  0.7870326677307425  0.5343856688998105  0.864679076171436  1.0000
  C   C28       1.0  0.8438538748494234  0.4684194458189481  0.7980548067980173  1.0000
  C   C29       1.0  0.9053274745069578  0.4120638609793313  0.8793705935003263  1.0000
  S   S1        1.0  0.7095652497984039  0.6063990914810906  0.7588533166995179  1.0000
  C   C30       1.0  0.7560327510915  0.7562144515366732  0.7250045418824209  1.0000
  N   N3        1.0  0.7865160349179527  0.8544219109272301  0.7028302879046486  1.0000
  H   H19       1.0  0.026872130171249117  0.35727331514169114  0.32379587059684223  1.0000
  H   H20       1.0  0.8510981680687947  0.4938374310705178  0.212498946539307  1.0000
  H   H21       1.0  0.7468652211675297  0.5953432511009417  0.06582598374842719  1.0000
  H   H22       1.0  0.8409026293940794  0.46409878389681836  0.6817599055746135  1.0000
  H   H23       1.0  0.08391499296373614  0.32811916690398296  0.7916993371766079  1.0000
  Zn  Zn1       1.0  0.824250123840451  0.41723064147743716  0.45125029850650256  1.0000
  Zn  Zn2       1.0  0.9888557600447795  0.41374804126818043  0.46000799562213984  1.0000
  C   C31       1.0  0.9057904561060938  0.4081838240304271  0.719180992232642  1.0000
  C   C32       1.0  0.9073172248479375  0.4227964586252216  0.1920775383061124  1.0000
  C   C33       1.0  0.9065680711398314  0.6527956235700393  0.44975593433006783  1.0000
  C   C34       1.0  0.9065395534310668  0.17818309890637263  0.46150267096324793  1.0000
  O   O1        1.0  0.9696270109759121  0.42277172331368806  0.24916187061964254  1.0000
  O   O2        1.0  0.9684125403521553  0.40556436972242876  0.6687431345179091  1.0000
  O   O3        1.0  0.969039627889394  0.6030914970752925  0.4511804485292145  1.0000
  O   O4        1.0  0.9689998675836886  0.22524460731674156  0.4667244454216073  1.0000
  O   O5        1.0  0.8441059601297387  0.6057340766187922  0.4445338457108725  1.0000
  O   O6        1.0  0.8434788728038298  0.40820851063508085  0.6620964539488428  1.0000
  O   O7        1.0  0.8446933485098679  0.425415832981968  0.2425134551965138  1.0000
  O   O8        1.0  0.844066204800826  0.22788870681902054  0.46007613818904614  1.0000
