data_image0
_chemical_formula_structural       NC9NC5H8C6ClH5C7H8Zn2C4O8
_chemical_formula_sum              "N2 C31 H21 Cl1 Zn2 O8"
_cell_length_a       17.807436237873137
_cell_length_b       10.30297070629231
_cell_length_c       9.274345330872308
_cell_angle_alpha    85.12371235536625
_cell_angle_beta     88.93938532988027
_cell_angle_gamma    88.39001192287226

_space_group_name_H-M_alt    "P 1"
_space_group_IT_number       1

loop_
  _space_group_symop_operation_xyz
  'x, y, z'

loop_
  _atom_site_type_symbol
  _atom_site_label
  _atom_site_symmetry_multiplicity
  _atom_site_fract_x
  _atom_site_fract_y
  _atom_site_fract_z
  _atom_site_occupancy
  N   N1        1.0  0.7138423215682984  0.3980606410808016  0.3964803806770229  1.0000
  C   C1        1.0  0.6533039343593696  0.3629643101429893  0.38422903404448916  1.0000
  C   C2        1.0  0.5780008344682253  0.31930833959354255  0.3689896890707136  1.0000
  C   C3        1.0  0.5603774608268481  0.24869842565071118  0.2522957293026866  1.0000
  C   C4        1.0  0.48726240397109266  0.2062009986859601  0.23740747916064708  1.0000
  C   C5        1.0  0.4307221469628398  0.23393631864491238  0.33917712373946113  1.0000
  C   C6        1.0  0.3530193233490225  0.1888867670523482  0.3234459821044344  1.0000
  C   C7        1.0  0.29072733999996586  0.27042351205082027  0.352272993661364  1.0000
  C   C8        1.0  0.2174699173359088  0.2277230100729819  0.337399947788084  1.0000
  C   C9        1.0  0.1541262217999304  0.3119475343384274  0.36663138092174385  1.0000
  N   N2        1.0  0.10321088212101269  0.37965821671421085  0.39013264578290063  1.0000
  C   C10       1.0  0.20592104620166404  0.10322805459465312  0.29367171800417013  1.0000
  C   C11       1.0  0.2673556971261938  0.021677524238305823  0.26483538262768835  1.0000
  C   C12       1.0  0.3404945906358373  0.06398512042489157  0.27948333914894036  1.0000
  C   C13       1.0  0.449035947832296  0.30503880740991834  0.45611472258183355  1.0000
  C   C14       1.0  0.5222045698410164  0.34734706055277415  0.4708299916030776  1.0000
  H   H1        1.0  0.6030920311741422  0.22675466653157025  0.1725984188270366  1.0000
  H   H2        1.0  0.4747194628898154  0.15315367897988352  0.1452545793814919  1.0000
  H   H3        1.0  0.2990960745552097  0.3676420398300968  0.38436525825650325  1.0000
  H   H4        1.0  0.149503251873445  0.06928184164926822  0.28189718091947186  1.0000
  H   H5        1.0  0.2582939683611017  0.925287776335248  0.23140905255865785  1.0000
  H   H6        1.0  0.3872203401018136  0.9984030608186856  0.25831405236012817  1.0000
  H   H7        1.0  0.4070324879258759  0.3264340458384416  0.5372506614636015  1.0000
  H   H8        1.0  0.5352805030946888  0.401622335059733  0.5618252897497651  1.0000
  C   C15       1.0  0.9085301525674054  0.007611785524569205  0.39331270401025703  1.0000
  C   C16       1.0  0.9859991892864938  0.0006159437717343561  0.4198472384324452  1.0000
  C   C17       1.0  0.024437258029871296  0.8801879505815672  0.43301286530780997  1.0000
  C   C18       1.0  0.9859991889588854  0.7655079755847142  0.41984717056447285  1.0000
  C   C19       1.0  0.9085301602541915  0.7700967264050441  0.39331278649955825  1.0000
  C   C20       1.0  0.8701732685957752  0.8917222154636216  0.38017483147610354  1.0000
  Cl  Cl1       1.0  0.12121454275490161  0.8729519950390674  0.46616072129263886  1.0000
  H   H9        1.0  0.8793489264972902  0.3375501203205237  0.38331680159076686  1.0000
  H   H10       1.0  0.016810508405474153  0.08835879282636913  0.43040054372792547  1.0000
  H   H11       1.0  0.016810479109510924  0.6731576020968865  0.4304004405178139  1.0000
  H   H12       1.0  0.8104267966897154  0.8961892939654968  0.35971055680677333  1.0000
  H   H13       1.0  0.8793489217405784  0.4445221519927716  0.38331707414475047  1.0000
  C   C21       1.0  0.9102298001293025  0.39169303781555787  0.9694825547224251  1.0000
  C   C22       1.0  0.8654946967471278  0.48525496554095393  0.035471428445661424  1.0000
  C   C23       1.0  0.8162678264468597  0.5685885095582297  0.9542403337090151  1.0000
  C   C24       1.0  0.8100375321429145  0.5593323190119643  0.8053976946247601  1.0000
  C   C25       1.0  0.8559376065053913  0.4693656176023821  0.7373855430856069  1.0000
  C   C26       1.0  0.9068305060292003  0.3860154508851012  0.8171428484055978  1.0000
  C   C27       1.0  0.7582559351441351  0.6509658687357859  0.7177130647741303  1.0000
  H   H14       1.0  0.9964824411713351  0.1048362165929222  0.09641285367878692  1.0000
  H   H15       1.0  0.8674077277329999  0.4921313097109758  0.1512572341679448  1.0000
  H   H16       1.0  0.7823543073915278  0.6395424239821956  0.007955423353131593  1.0000
  H   H17       1.0  0.8530932714764243  0.4665400251651204  0.6210398546831253  1.0000
  H   H18       1.0  0.96763644115473  0.19544763932517117  0.5522561341598808  1.0000
  H   H19       1.0  0.7889383359707047  0.7396561673568326  0.6780888581824365  1.0000
  H   H20       1.0  0.7089516239306404  0.6797416747960145  0.7840917761059734  1.0000
  H   H21       1.0  0.7371485578540947  0.6039855881137306  0.6234555564960265  1.0000
  Zn  Zn1       1.0  0.8262056426537955  0.3927465788323443  0.39465690854183655  1.0000
  Zn  Zn2       1.0  0.9908474952558568  0.3849616166868999  0.39196798325336446  1.0000
  C   C28       1.0  0.9074713865092633  0.3819166741977965  0.6569169574782261  1.0000
  C   C29       1.0  0.9095835487162752  0.39579307345873294  0.12970804661250246  1.0000
  C   C30       1.0  0.9085493687151245  0.626009517679018  0.3875614210696037  1.0000
  C   C31       1.0  0.9085055100210347  0.15169867231298761  0.3990636608861984  1.0000
  O   O1        1.0  0.9718473858625627  0.39420906637556796  0.1824607522350099  1.0000
  O   O2        1.0  0.9701669076008692  0.3775910985166903  0.6021230043095316  1.0000
  O   O3        1.0  0.9710365435767867  0.5746991863773485  0.3846165166806401  1.0000
  O   O4        1.0  0.970977694139501  0.1971009911834822  0.3999671325651799  1.0000
  O   O5        1.0  0.8460753875859975  0.5806072069938513  0.38665776014002784  1.0000
  O   O6        1.0  0.8452057519153062  0.3835006794558071  0.6041641708138525  1.0000
  O   O7        1.0  0.846886237185616  0.40011861369338714  0.1845001834929711  1.0000
  O   O8        1.0  0.8460165450255451  0.20301052849081896  0.40200667203186935  1.0000
