data_image0
_chemical_formula_structural       NC10NC3NCH9C12ClH9C12SCH12Zn2C4O8
_chemical_formula_sum              "N3 C43 H30 Cl1 S1 Zn2 O8"
_cell_length_a       19.437513618241372
_cell_length_b       10.299768534541528
_cell_length_c       10.299780138516091
_cell_angle_alpha    85.57853540926422
_cell_angle_beta     90.33953054960048
_cell_angle_gamma    89.54057453160664

_space_group_name_H-M_alt    "P 1"
_space_group_IT_number       1

loop_
  _space_group_symop_operation_xyz
  'x, y, z'

loop_
  _atom_site_type_symbol
  _atom_site_label
  _atom_site_symmetry_multiplicity
  _atom_site_fract_x
  _atom_site_fract_y
  _atom_site_fract_z
  _atom_site_occupancy
  N   N1        1.0  0.6481879165362952  0.41005370456433726  0.5758496961256505  1.0000
  C   C1        1.0  0.5892575877956581  0.42706272488596325  0.5728757218012355  1.0000
  C   C2        1.0  0.5158208719377397  0.44831394392398505  0.5691842554885356  1.0000
  C   C3        1.0  0.4740415090537874  0.3471234074592135  0.5575141489699955  1.0000
  C   C4        1.0  0.39815349947827644  0.3571863448567776  0.550294249408822  1.0000
  C   C5        1.0  0.35859102400790643  0.4380479536775672  0.6160429001772623  1.0000
  C   C6        1.0  0.28240758247340175  0.42943798292611085  0.6075982080197428  1.0000
  C   C7        1.0  0.2492508296306716  0.30809683139721566  0.6122277841223069  1.0000
  C   C8        1.0  0.177515267650897  0.30172360932182585  0.605059330176873  1.0000
  C   C9        1.0  0.13796574086597493  0.4162189435307067  0.5936234628137509  1.0000
  C   C10       1.0  0.0641156524547414  0.40950751125920976  0.5862868870592997  1.0000
  N   N2        1.0  0.004745279489495501  0.4041121098674285  0.5803887386040973  1.0000
  C   C11       1.0  0.1704058236561155  0.5372496934740902  0.5897390949312764  1.0000
  C   C12       1.0  0.2421258323889558  0.5438769150846368  0.5969695960106625  1.0000
  C   C13       1.0  0.38728840385315544  0.5303504070463392  0.7059691901595543  1.0000
  N   N3        1.0  0.4442850574867632  0.5935572295815483  0.6855729853459804  1.0000
  C   C14       1.0  0.4881268117302623  0.584272156461487  0.5724694233673797  1.0000
  H   H1        1.0  0.4964091242017596  0.25206661670268793  0.5453828304452473  1.0000
  H   H2        1.0  0.3734284816408934  0.28766320321525396  0.49197092139913035  1.0000
  H   H3        1.0  0.2786851341041748  0.21818926173631703  0.6232380625814271  1.0000
  H   H4        1.0  0.152905081900041  0.20750020416082426  0.6089357671288106  1.0000
  H   H5        1.0  0.1402860682316788  0.6265028595755582  0.5810407878608146  1.0000
  H   H6        1.0  0.2662545691656561  0.6385131076841875  0.5930777462264268  1.0000
  H   H7        1.0  0.357286814809833  0.5507534295847436  0.7903343686988938  1.0000
  H   H8        1.0  0.5308916214225173  0.6545843023981395  0.5782404478787209  1.0000
  H   H9        1.0  0.4584667437468772  0.6123611058722886  0.48183103903783236  1.0000
  C   C15       1.0  0.8264050058734329  0.02571851204409748  0.5781163299483604  1.0000
  C   C16       1.0  0.8309462471799901  0.03516990543914656  0.4417115460199405  1.0000
  C   C17       1.0  0.8333134717964708  0.9228185343383176  0.37260238769572496  1.0000
  C   C18       1.0  0.8310776482284138  0.7998800027134363  0.4417287080288014  1.0000
  C   C19       1.0  0.8265347884152939  0.7884371072339897  0.5781334093063581  1.0000
  C   C20       1.0  0.8242244141733902  0.9019128274210906  0.6455633594667914  1.0000
  C   C21       1.0  0.8381186412965284  0.9338709732084215  0.22829750920333658  1.0000
  C   C22       1.0  0.7989836815702774  0.02804211583116145  0.1533389616242706  1.0000
  C   C23       1.0  0.8035677436488657  0.03824817213226983  0.01752387378091513  1.0000
  C   C24       1.0  0.8472204487129333  0.9548058467819123  0.9549747099519811  1.0000
  C   C25       1.0  0.8863442438085042  0.8609467068588409  0.028421964993145192  1.0000
  C   C26       1.0  0.8818823592101072  0.8503463675039689  0.16425325077369268  1.0000
  Cl  Cl1       1.0  0.8528951772176551  0.9678581812430365  0.7845698623730358  1.0000
  H   H10       1.0  0.8246392685642104  0.3495714035348545  0.6300895649692448  1.0000
  H   H11       1.0  0.8336026098818933  0.13012308159276256  0.38901521909736897  1.0000
  H   H12       1.0  0.8319385577870576  0.7130168822434673  0.3887959791183508  1.0000
  H   H13       1.0  0.8207203587749377  0.8938533353857557  0.7507933622998479  1.0000
  H   H14       1.0  0.8248311392231894  0.45662262745470306  0.6301152353461918  1.0000
  H   H15       1.0  0.7641941404341319  0.09261099828162235  0.19963737923782673  1.0000
  H   H16       1.0  0.7730250459289989  0.11085516888723812  0.9610259005750645  1.0000
  H   H17       1.0  0.9203666285812294  0.7963435149300717  0.9804243816771829  1.0000
  H   H18       1.0  0.9132982043277321  0.7780177067507874  0.21926810355685464  1.0000
  C   C27       1.0  0.826497528286858  0.4069660680185816  0.1967731230129774  1.0000
  C   C28       1.0  0.7610715555965807  0.35004532655832543  0.19943347229964686  1.0000
  C   C29       1.0  0.7278924960920683  0.32131785234583643  0.08363423186262242  1.0000
  C   C30       1.0  0.7610152680397053  0.3502717013620762  0.9641288638234404  1.0000
  C   C31       1.0  0.8264422660735855  0.40718960228009005  0.9594766892353368  1.0000
  C   C32       1.0  0.8588169930133996  0.4352188416191647  0.07631714719338811  1.0000
  C   C33       1.0  0.6586763627551848  0.2611155220831145  0.08751145588447362  1.0000
  C   C34       1.0  0.6077296624787915  0.30362507937326777  0.9959072602066459  1.0000
  C   C35       1.0  0.5425985138510745  0.24693229640943254  0.9997932030422481  1.0000
  C   C36       1.0  0.5274642025975206  0.14737563397254827  0.0951612430894848  1.0000
  C   C37       1.0  0.5777984568877519  0.10407735715054511  0.18635197548671978  1.0000
  C   C38       1.0  0.642972140040467  0.1605960031176581  0.18282897852903335  1.0000
  S   S1        1.0  0.4439201831515203  0.07449732915253238  0.0996975807542484  1.0000
  C   C39       1.0  0.4086577323894159  0.18929910760215357  0.20797995561347493  1.0000
  H   H19       1.0  0.8514378436996456  0.42860778769876046  0.5232165442416719  1.0000
  H   H20       1.0  0.7353560422066493  0.3295517294966855  0.2916550285191856  1.0000
  H   H21       1.0  0.7360623989185968  0.32668634032910177  0.8747385104287679  1.0000
  H   H22       1.0  0.909290505769103  0.4791299844706079  0.07349643091434221  1.0000
  H   H23       1.0  0.8513577170609541  0.4289365836679973  0.6302459621063748  1.0000
  H   H24       1.0  0.6179735386231695  0.3818214454533766  0.9223610025685773  1.0000
  H   H25       1.0  0.5038392736692129  0.2809111373729243  0.9289691591681479  1.0000
  H   H26       1.0  0.5665031558258301  0.026594480091051583  0.26000972686870494  1.0000
  H   H27       1.0  0.6813608679266795  0.12457236746012337  0.2535474489414677  1.0000
  H   H28       1.0  0.43774940947902263  0.18278427804192512  0.301364288979222  1.0000
  H   H29       1.0  0.3540553021197377  0.1650804858394621  0.2280566883582593  1.0000
  H   H30       1.0  0.4113342849203699  0.2899755578911618  0.16142477936964528  1.0000
  Zn  Zn1       1.0  0.751082673792483  0.40833560170710487  0.5771670742746335  1.0000
  Zn  Zn2       1.0  0.9018505258545302  0.40581954643145496  0.5790820296083592  1.0000
  C   C40       1.0  0.8264502898565462  0.40197375310594013  0.8153092255254402  1.0000
  C   C41       1.0  0.8264845564402923  0.41218300619453085  0.3409400267663158  1.0000
  C   C42       1.0  0.8265070846961361  0.6442656351159308  0.5729552337666437  1.0000
  C   C43       1.0  0.8264277098836753  0.16988956477964123  0.5832940870721575  1.0000
  O   O1        1.0  0.8836958161303617  0.4129733627661021  0.39005047208893306  1.0000
  O   O2        1.0  0.8836683412113351  0.3992727889774734  0.7676518131408463  1.0000
  O   O3        1.0  0.883713432370876  0.5949265611669095  0.5719492403346209  1.0000
  O   O4        1.0  0.8836506735326025  0.21731960069679856  0.5857529468716327  1.0000
  O   O5        1.0  0.769282474664743  0.5968355483017791  0.5704961563510491  1.0000
  O   O6        1.0  0.7692373837725616  0.4011833363772592  0.7661986599499192  1.0000
  O   O7        1.0  0.7692648588427884  0.4148838644521229  0.3885957575670815  1.0000
  O   O8        1.0  0.7692197162335798  0.2192300931227049  0.5842983297129964  1.0000
