data_image0
_chemical_formula_structural       NC12NC2H8C13OH12C12BrH9Zn2C4O8
_chemical_formula_sum              "N2 C43 H29 O9 Br1 Zn2"
_cell_length_a       19.240039667572717
_cell_length_b       10.299150109392551
_cell_length_c       10.299148005577397
_cell_angle_alpha    85.53215182685325
_cell_angle_beta     89.97327996829169
_cell_angle_gamma    89.97992514300192

_space_group_name_H-M_alt    "P 1"
_space_group_IT_number       1

loop_
  _space_group_symop_operation_xyz
  'x, y, z'

loop_
  _atom_site_type_symbol
  _atom_site_label
  _atom_site_symmetry_multiplicity
  _atom_site_fract_x
  _atom_site_fract_y
  _atom_site_fract_z
  _atom_site_occupancy
  N   N1        1.0  0.6545682454736524  0.4215962581324739  0.5669173397425817  1.0000
  C   C1        1.0  0.5944198766610792  0.4215963421323759  0.566917257774271  1.0000
  C   C2        1.0  0.5196018395322004  0.42159645944745594  0.5669171204246337  1.0000
  C   C3        1.0  0.4831143986690637  0.3571109161148416  0.6703551982250446  1.0000
  C   C4        1.0  0.41044364975502334  0.3570000133560754  0.6704417807172112  1.0000
  C   C5        1.0  0.3732696046343476  0.4215965520532625  0.5669168927015464  1.0000
  C   C6        1.0  0.4104712378172675  0.4861932777233087  0.4633921991757353  1.0000
  C   C7        1.0  0.48314192548052454  0.4860821394283752  0.4634789042508298  1.0000
  C   C8        1.0  0.2960645142332856  0.4215964733997568  0.5669167973066513  1.0000
  C   C9        1.0  0.2588874885039379  0.3083205220185665  0.6088261018378927  1.0000
  C   C10       1.0  0.18621680287379547  0.30842744413802614  0.6087347374029638  1.0000
  C   C11       1.0  0.1497322273191025  0.4215963442076543  0.5669168582615858  1.0000
  C   C12       1.0  0.0749141901234053  0.4215962304193067  0.566917106971444  1.0000
  N   N2        1.0  0.014765873226934898  0.4215961895619772  0.5669173154143528  1.0000
  C   C13       1.0  0.1861951626200081  0.5347653201186955  0.5250989262023875  1.0000
  C   C14       1.0  0.25886586159869657  0.5348724223972926  0.5250073991067505  1.0000
  H   H1        1.0  0.5108184678197875  0.3071847065944744  0.7511165748829276  1.0000
  H   H2        1.0  0.3833391180991359  0.307871789026263  0.7523184629369519  1.0000
  H   H3        1.0  0.3833892386926473  0.5353215291151617  0.3815154660963137  1.0000
  H   H4        1.0  0.5108676277428374  0.5360082486378056  0.38271780343443496  1.0000
  H   H5        1.0  0.2859896987561527  0.21915344883803226  0.6400239778577622  1.0000
  H   H6        1.0  0.1585104695365228  0.22015947128942506  0.6409653422579509  1.0000
  H   H7        1.0  0.1584716725104592  0.6230332684263483  0.49286833590646206  1.0000
  H   H8        1.0  0.2859501301600229  0.6240395747673284  0.49380947828761823  1.0000
  C   C15       1.0  0.8347358672963734  0.040196569148619916  0.5670614434361292  1.0000
  C   C16       1.0  0.8334216445582779  0.02837209239473992  0.7038785860905317  1.0000
  C   C17       1.0  0.832694896417106  0.9052422708423497  0.772984074716043  1.0000
  C   C18       1.0  0.8332877326817464  0.7931168015704066  0.7035151740915928  1.0000
  C   C19       1.0  0.8346049245367126  0.8029858593192979  0.5667844344580045  1.0000
  C   C20       1.0  0.8353232058322583  0.9269860396570657  0.499356612984179  1.0000
  C   C21       1.0  0.8312985602434824  0.8937150789160296  0.9176309721131495  1.0000
  C   C22       1.0  0.7885443987217299  0.8008247521333686  0.9856555788474242  1.0000
  C   C23       1.0  0.7872074213498428  0.7900590853555394  0.12176816474081976  1.0000
  C   C24       1.0  0.829056296310977  0.871024742196307  0.19231675694165484  1.0000
  C   C25       1.0  0.8711453527376037  0.9648686083237111  0.12493475204388917  1.0000
  C   C26       1.0  0.8724984636144302  0.9758100721738935  0.9888218774209341  1.0000
  C   C27       1.0  0.8261582727157966  0.8618106159874007  0.33840987664285294  1.0000
  O   O1        1.0  0.7742009799915863  0.944980061663066  0.37865242853144243  1.0000
  H   H9        1.0  0.8367649811735559  0.26980865914985497  0.3088126753355214  1.0000
  H   H10       1.0  0.831996712312418  0.11513627767865242  0.7568896486932193  1.0000
  H   H11       1.0  0.8336711518467559  0.6979850381066532  0.7563511655242274  1.0000
  H   H12       1.0  0.8363372286497887  0.9353145477725407  0.3938921021972497  1.0000
  H   H13       1.0  0.8350647826836515  0.4793063770643485  0.5141929965914105  1.0000
  H   H14       1.0  0.7553188890169578  0.7378253258225197  0.9335444480520179  1.0000
  H   H15       1.0  0.7533854006922077  0.7187205660369358  0.17214609357264898  1.0000
  H   H16       1.0  0.9030904481569755  0.029420873118228167  0.17779212378982012  1.0000
  H   H17       1.0  0.9063435708474697  0.04759388196011848  0.9392506296619361  1.0000
  H   H18       1.0  0.8772722253608202  0.8896326932890474  0.3785817569709662  1.0000
  H   H19       1.0  0.8148540107325879  0.7597826365716979  0.3762242331120217  1.0000
  H   H20       1.0  0.7744343990665863  0.9352857381891891  0.4752836389112952  1.0000
  C   C28       1.0  0.8347651206799261  0.4216432827187868  0.18553471434415592  1.0000
  C   C29       1.0  0.7693796213660855  0.48242805811842093  0.18007561327516936  1.0000
  C   C30       1.0  0.736129921822394  0.5131939689635192  0.06016948583119054  1.0000
  C   C31       1.0  0.7691476689344503  0.4823552472128448  0.9447986048429732  1.0000
  C   C32       1.0  0.8345756584645035  0.4215392024525477  0.9483111055955887  1.0000
  C   C33       1.0  0.8669813695752946  0.39155572958175866  0.06910277572845303  1.0000
  C   C34       1.0  0.6669604512504804  0.5774988575501516  0.05543933127443568  1.0000
  C   C35       1.0  0.6523438318056135  0.6788248735589708  0.13548054370010743  1.0000
  C   C36       1.0  0.5872101462321891  0.739238761623837  0.13083373913531207  1.0000
  C   C37       1.0  0.5359526939816138  0.699291807308893  0.046483608384136024  1.0000
  C   C38       1.0  0.5498711111995616  0.5987527210236783  0.9665896449072542  1.0000
  C   C39       1.0  0.6149457452454591  0.5381168494566753  0.9708439916433438  1.0000
  Br  Br1       1.0  0.4470209627042663  0.781969209571658  0.040403355120430584  1.0000
  H   H21       1.0  0.8599293847705081  0.3983155281097214  0.5151059889691145  1.0000
  H   H22       1.0  0.7437291241770335  0.5043760868000859  0.2694071564935907  1.0000
  H   H23       1.0  0.7441827914308334  0.5074522531193895  0.8519730185604493  1.0000
  H   H24       1.0  0.917415842532507  0.34467485398945447  0.07259747337199252  1.0000
  H   H25       1.0  0.9582614979987943  0.3074874055053054  0.7475916025400982  1.0000
  H   H26       1.0  0.6915546528035563  0.7124447157122683  0.20037590676887618  1.0000
  H   H27       1.0  0.5767011067566359  0.8173114527040366  0.19260988784353475  1.0000
  H   H28       1.0  0.5102487731133697  0.5672850403594503  0.9013864992151486  1.0000
  H   H29       1.0  0.6242919100840179  0.45935481114512355  0.9092691875218883  1.0000
  Zn  Zn1       1.0  0.758513508052993  0.4215927698408901  0.566924822786093  1.0000
  Zn  Zn2       1.0  0.9108206286047619  0.42158908207291385  0.5669204356546798  1.0000
  C   C40       1.0  0.83461081727102  0.41638477304938815  0.8041319421945927  1.0000
  C   C41       1.0  0.8347249822627802  0.4267987175584396  0.3297134430760085  1.0000
  C   C42       1.0  0.8346273829032386  0.658803191579579  0.5616613431630482  1.0000
  C   C43       1.0  0.8347083649094588  0.1843787385916873  0.5721841119179036  1.0000
  O   O2        1.0  0.8925112709101654  0.4285218628991863  0.37809947869172533  1.0000
  O   O3        1.0  0.892422109236603  0.41465784902760683  0.7557422033385381  1.0000
  O   O4        1.0  0.8924347066903192  0.6104137876246545  0.5599454786328293  1.0000
  O   O5        1.0  0.8924986215069372  0.23276593360765624  0.5738961060159615  1.0000
  O   O6        1.0  0.7768354631758735  0.6104159183088211  0.5599491524194767  1.0000
  O   O7        1.0  0.7768228654683166  0.41466154015100787  0.7557458073094999  1.0000
  O   O8        1.0  0.7769120275836973  0.4285255089760537  0.3781015211994252  1.0000
  O   O9        1.0  0.7768993781550373  0.2327695703816788  0.5738982458997995  1.0000
