data_image0
_chemical_formula_structural       NC9NC3NH7C8H6C9H10Zn2C4O8
_chemical_formula_sum              "N3 C33 H23 Zn2 O8"
_cell_length_a       16.053384444249904
_cell_length_b       9.27514070457351
_cell_length_c       9.27267997650553
_cell_angle_alpha    86.15343735439215
_cell_angle_beta     90.20084585415952
_cell_angle_gamma    89.76770978158073

_space_group_name_H-M_alt    "P 1"
_space_group_IT_number       1

loop_
  _space_group_symop_operation_xyz
  'x, y, z'

loop_
  _atom_site_type_symbol
  _atom_site_label
  _atom_site_symmetry_multiplicity
  _atom_site_fract_x
  _atom_site_fract_y
  _atom_site_fract_z
  _atom_site_occupancy
  N   N1        1.0  0.7873488692827997  0.5459634671685318  0.41018518205039173  1.0000
  C   C1        1.0  0.7361239127841315  0.5221978316040086  0.3270431047456205  1.0000
  C   C2        1.0  0.6724654849418391  0.49266894797847643  0.22376036208058175  1.0000
  C   C3        1.0  0.6854232153466376  0.47810672446260094  0.0786037313760386  1.0000
  C   C4        1.0  0.6083992812368939  0.44952807601375167  0.020531081738947243  1.0000
  C   C5        1.0  0.5517413142822837  0.44824445749983033  0.13339000372719  1.0000
  C   C6        1.0  0.460885270956047  0.4217082117253974  0.12195244517419403  1.0000
  C   C7        1.0  0.4056891289192525  0.46995552380235117  0.22630960204520115  1.0000
  C   C8        1.0  0.3199470607425231  0.44478751810826594  0.21535517234911014  1.0000
  C   C9        1.0  0.2639929474635302  0.4949928557894297  0.32234994218817503  1.0000
  N   N2        1.0  0.219022394894764  0.5353508542617016  0.40835698315582764  1.0000
  C   C10       1.0  0.2886744217352447  0.3712479998705305  0.10005851016883452  1.0000
  C   C11       1.0  0.3428637441944595  0.32313534811867806  0.9959366386399546  1.0000
  C   C12       1.0  0.4283969886546286  0.3481158693331506  0.006450391287250888  1.0000
  N   N3        1.0  0.5915768057290488  0.47473211995747616  0.2572859022246246  1.0000
  H   H1        1.0  0.7439863092785263  0.4872375392856208  0.021328377963561573  1.0000
  H   H2        1.0  0.5955991229229666  0.4333442445218341  0.908181637314439  1.0000
  H   H3        1.0  0.428708872597065  0.5288979998889959  0.3150307299283127  1.0000
  H   H4        1.0  0.2224954662091473  0.3512274736912613  0.0906503528761784  1.0000
  H   H5        1.0  0.31856353193482784  0.26601344279471184  0.906960240440287  1.0000
  H   H6        1.0  0.4689562339027193  0.30812018325852375  0.9250458032292906  1.0000
  H   H7        1.0  0.5658395833617513  0.47817939963424566  0.36026265945238506  1.0000
  C   C13       1.0  0.0006552546001472622  0.11727049393040523  0.4082735508173367  1.0000
  C   C14       1.0  0.012018404369284807  0.1993694426991828  0.276713929586653  1.0000
  C   C15       1.0  0.030666333235914053  0.13257460114544806  0.15029062912899582  1.0000
  C   C16       1.0  0.03839961943920179  0.9824767298131956  0.15299863660461277  1.0000
  C   C17       1.0  0.025960153717279996  0.8988042942929653  0.282200007849172  1.0000
  C   C18       1.0  0.0057239251003051725  0.9640326797838066  0.41028103666592286  1.0000
  C   C19       1.0  0.05816768423607299  0.91387086364831  0.0225408064345023  1.0000
  C   C20       1.0  0.07471921127375403  0.8564153255219334  0.9133196190317717  1.0000
  H   H8        1.0  0.015708922967822225  0.1962705843666179  0.7624531558660831  1.0000
  H   H9        1.0  0.008418919463830221  0.3162470963251214  0.2723133167005305  1.0000
  H   H10       1.0  0.03987009542818587  0.19828322654994995  0.050585433009872734  1.0000
  H   H11       1.0  0.030158322951977512  0.7820924116031973  0.28200413280705816  1.0000
  H   H12       1.0  0.012663189224139788  0.6672660519639879  0.6489264934721537  1.0000
  H   H13       1.0  0.0892478976002915  0.8059797365028354  0.8174463535917803  1.0000
  C   C21       1.0  0.00148046637139476  0.5372885705537409  0.9859136848704427  1.0000
  C   C22       1.0  0.05755115024732049  0.4467131883606177  0.06572874001355357  1.0000
  C   C23       1.0  0.11779354089822291  0.3677203539407994  0.9966868899481925  1.0000
  C   C24       1.0  0.1240027995317048  0.3767037093684121  0.8458202293398447  1.0000
  C   C25       1.0  0.06692061907818836  0.4653469198314186  0.7646204928289934  1.0000
  C   C26       1.0  0.004898721977199211  0.5440146228033271  0.8326409180008579  1.0000
  C   C27       1.0  0.1919565044983731  0.28816941341163427  0.7791760837478835  1.0000
  C   C28       1.0  0.17172844560734402  0.22267552630829093  0.6370037854821353  1.0000
  C   C29       1.0  0.23108663463968926  0.35033139435350535  0.6392432505187801  1.0000
  H   H14       1.0  0.8766505267368188  0.6378527033128578  0.2596268315157306  1.0000
  H   H15       1.0  0.056189026230097056  0.439472953301302  0.1827916847269826  1.0000
  H   H16       1.0  0.16051394135325703  0.30003076886525437  0.06197871069347105  1.0000
  H   H17       1.0  0.06882109807087611  0.47153389975347415  0.6478484748010884  1.0000
  H   H18       1.0  0.8166113733959  0.6842991676909  0.7190606308718461  1.0000
  H   H19       1.0  0.23510118294949223  0.22224108011542024  0.8510242225561209  1.0000
  H   H20       1.0  0.110006973772383  0.24880021090668958  0.587642539367488  1.0000
  H   H21       1.0  0.2034595785168849  0.11808538247055608  0.6223266948275368  1.0000
  H   H22       1.0  0.20546165347309375  0.45393300001622766  0.5911253343644143  1.0000
  H   H23       1.0  0.29751970277324813  0.32034082863311625  0.6258711364651051  1.0000
  Zn  Zn1       1.0  0.91192053240631  0.5428971172775807  0.4096659121415416  1.0000
  Zn  Zn2       1.0  0.09445068556817371  0.5384055516444356  0.40888800826037586  1.0000
  C   C30       1.0  0.004216366990853037  0.5369995888196637  0.6725776891203702  1.0000
  C   C31       1.0  0.0021568556678874785  0.5443048513348362  0.14597636860209873  1.0000
  C   C32       1.0  0.00473837472687877  0.8039310696509194  0.40415652879441066  1.0000
  C   C33       1.0  0.0016347755884205135  0.27737164043625717  0.4143976019497737  1.0000
  O   O1        1.0  0.07165306230416424  0.5449487635393073  0.1993996420724347  1.0000
  O   O2        1.0  0.07325631495803919  0.5329455912662613  0.6185635870128107  1.0000
  O   O3        1.0  0.07367691507588914  0.7484961727326704  0.4018116084590386  1.0000
  O   O4        1.0  0.07123239952648319  0.3293981930606711  0.41615151281896356  1.0000
  O   O5        1.0  0.9351387561593961  0.7519044773956053  0.4024024078408348  1.0000
  O   O6        1.0  0.9347181660963827  0.536355627530779  0.6191543136307722  1.0000
  O   O7        1.0  0.9331149061996235  0.5483587357915156  0.19998863523575303  1.0000
  O   O8        1.0  0.9326942437931686  0.33280815585936696  0.4167406140474059  1.0000
