data_image0
_chemical_formula_structural       NC9NC3NH7C6NO2H5C6OCH7Zn2C4O8
_chemical_formula_sum              "N4 C29 H19 O11 Zn2"
_cell_length_a       16.053384444249904
_cell_length_b       9.273392599741053
_cell_length_c       9.273891588657152
_cell_angle_alpha    86.1963526091537
_cell_angle_beta     89.48625385378584
_cell_angle_gamma    88.5803697124526

_space_group_name_H-M_alt    "P 1"
_space_group_IT_number       1

loop_
  _space_group_symop_operation_xyz
  'x, y, z'

loop_
  _atom_site_type_symbol
  _atom_site_label
  _atom_site_symmetry_multiplicity
  _atom_site_fract_x
  _atom_site_fract_y
  _atom_site_fract_z
  _atom_site_occupancy
  N   N1        1.0  0.7803146444494606  0.5448991378787904  0.4101684944670788  1.0000
  C   C1        1.0  0.7299745906012014  0.5210255458443622  0.32704535662119505  1.0000
  C   C2        1.0  0.6674155015697995  0.49136255086443653  0.22378614255225385  1.0000
  C   C3        1.0  0.681595683279928  0.47662530954227944  0.07865747793995403  1.0000
  C   C4        1.0  0.6053332806665879  0.4479652680751305  0.020600325644462677  1.0000
  C   C5        1.0  0.5478758156332074  0.44681142402296586  0.13343989136880108  1.0000
  C   C6        1.0  0.4574201288206138  0.4202486962100971  0.12200934459658663  1.0000
  C   C7        1.0  0.4008927351755012  0.46864071832751364  0.22633924133937655  1.0000
  C   C8        1.0  0.3155311503747452  0.44344747285062985  0.21539148040170342  1.0000
  C   C9        1.0  0.258203293690227  0.4938015473072194  0.32235816124197714  1.0000
  N   N2        1.0  0.2121284573310947  0.534279107240851  0.4083426229074354  1.0000
  C   C10       1.0  0.2859716259083433  0.36973795994938485  0.10012876803767812  1.0000
  C   C11       1.0  0.3414888885847039  0.32148093736036953  0.9960340902744442  1.0000
  C   C12       1.0  0.4266470766145142  0.34648609540412356  0.006541286198705758  1.0000
  N   N3        1.0  0.5864995551061696  0.47345549746105253  0.25730925749330447  1.0000
  H   H1        1.0  0.7404629770211639  0.48569450320495733  0.021390341888321236  1.0000
  H   H2        1.0  0.5935381165296291  0.4316435190793748  0.9082734570397359  1.0000
  H   H3        1.0  0.422566047495926  0.527715182353965  0.31503379900653533  1.0000
  H   H4        1.0  0.22010034764726172  0.3496965539757728  0.0907260361303388  1.0000
  H   H5        1.0  0.3185151492607654  0.26422765919689994  0.9070839618369796  1.0000
  H   H6        1.0  0.46827303606436205  0.30637634742999564  0.9251584095539003  1.0000
  H   H7        1.0  0.5599775333222375  0.47702349701065433  0.3602674786679765  1.0000
  C   C13       1.0  0.9987684781729995  0.11598965692097794  0.4083383822494009  1.0000
  C   C14       1.0  0.9885895633696222  0.198386273992498  0.27671263901037135  1.0000
  C   C15       1.0  0.9710418787157811  0.13256551190440044  0.14989573530520173  1.0000
  C   C16       1.0  0.9630900352167687  0.982356325688073  0.1511675762049307  1.0000
  C   C17       1.0  0.9745719486335915  0.8987501330289299  0.2817826846761923  1.0000
  C   C18       1.0  0.9936826059747117  0.9631774132087406  0.41018509032314454  1.0000
  N   N4        1.0  0.9442596683680257  0.9151111615281224  0.020129594972950086  1.0000
  O   O1        1.0  0.9337464111051781  0.9973014756819893  0.8922084100739248  1.0000
  O   O2        1.0  0.9369215783368833  0.7813604804963954  0.02039073554478188  1.0000
  H   H8        1.0  0.9806403264721666  0.1961404603690404  0.7621813051139894  1.0000
  H   H9        1.0  0.9922460138276261  0.3150999049664384  0.27243858870494386  1.0000
  H   H10       1.0  0.9628529996698943  0.19978113338843073  0.050864566760155265  1.0000
  H   H11       1.0  0.970544053882657  0.7822563981525318  0.28282573653564036  1.0000
  H   H12       1.0  0.9843127934846717  0.667502294879509  0.6493143571680773  1.0000
  C   C19       1.0  0.9976134703706294  0.5357296303331438  0.9859723201983384  1.0000
  C   C20       1.0  0.06548301252416877  0.5949791546032448  0.05439030700400438  1.0000
  C   C21       1.0  0.12856163447613644  0.6651163365415589  0.9744683124089608  1.0000
  C   C22       1.0  0.1239956455989658  0.6763598629732919  0.823070991795694  1.0000
  C   C23       1.0  0.05788186408016393  0.6161938564712051  0.7533015012640762  1.0000
  C   C24       1.0  0.9948375931072981  0.5434374212611983  0.8325511598952839  1.0000
  O   O3        1.0  0.1941663460810512  0.7226457824092773  0.04952495715797745  1.0000
  C   C25       1.0  0.2623243204735002  0.7968740277160027  0.9823239441288486  1.0000
  H   H13       1.0  0.7999569071574558  0.4520066632616441  0.09763445172363186  1.0000
  H   H14       1.0  0.17166290767778047  0.7302623407706426  0.7580659735920726  1.0000
  H   H15       1.0  0.05716492234218418  0.6236448124566718  0.636239373798908  1.0000
  H   H16       1.0  0.8630646235051098  0.4813207719662769  0.55752487007301  1.0000
  H   H17       1.0  0.23937212579186484  0.8950390042966718  0.9182357245501933  1.0000
  H   H18       1.0  0.29749597372594483  0.7244287477400531  0.9116083168404808  1.0000
  H   H19       1.0  0.304769198888023  0.8303044295347118  0.0670622995424146  1.0000
  Zn  Zn1       1.0  0.9049267767115682  0.5418306551031504  0.40964989544957364  1.0000
  Zn  Zn2       1.0  0.08751633353054294  0.5373359452672424  0.40887297728598565  1.0000
  C   C26       1.0  0.9953949462793142  0.5362339909028686  0.6725171314099658  1.0000
  C   C27       1.0  0.9970501464448609  0.5429343817441095  0.1460058782868563  1.0000
  C   C28       1.0  0.9946584875912676  0.8029887288897004  0.40409203355840906  1.0000
  C   C29       1.0  0.9977865529799788  0.2761779129094963  0.41443104947509235  1.0000
  O   O4        1.0  0.06615291280787594  0.543640350043588  0.1994197521937746  1.0000
  O   O5        1.0  0.06487343660049127  0.5321155498494013  0.6185131772817869  1.0000
  O   O6        1.0  0.06427779789520581  0.7475234109880436  0.4017580188586674  1.0000
  O   O7        1.0  0.06674848950014622  0.32823249977363256  0.4161748028262924  1.0000
  O   O8        1.0  0.9256945584331256  0.7509341021320859  0.4023480701668124  1.0000
  O   O9        1.0  0.9262901869824999  0.5355279733765506  0.6191031555107983  1.0000
  O   O10       1.0  0.9275696692295293  0.5470527075233047  0.20000799728130184  1.0000
  O   O11       1.0  0.9281652456259758  0.3316448479199874  0.41676315596196756  1.0000
