data_image0
_chemical_formula_structural       NC9NC3NH7C6NCOCH7C8H6Zn2C4O8
_chemical_formula_sum              "N4 C32 H20 O9 Zn2"
_cell_length_a       16.053384444249904
_cell_length_b       10.300268703208214
_cell_length_c       9.275144076552241
_cell_angle_alpha    85.95897192473107
_cell_angle_beta     90.26395466223778
_cell_angle_gamma    89.1549403880511

_space_group_name_H-M_alt    "P 1"
_space_group_IT_number       1

loop_
  _space_group_symop_operation_xyz
  'x, y, z'

loop_
  _atom_site_type_symbol
  _atom_site_label
  _atom_site_symmetry_multiplicity
  _atom_site_fract_x
  _atom_site_fract_y
  _atom_site_fract_z
  _atom_site_occupancy
  N   N1        1.0  0.776756783396016  0.3940307349397587  0.4068078070140402  1.0000
  C   C1        1.0  0.7256251895072919  0.37270621317717445  0.32373754870440075  1.0000
  C   C2        1.0  0.6620827789578043  0.3462104006601483  0.22054403739646086  1.0000
  C   C3        1.0  0.6750368833145394  0.3332363385555934  0.07544883982608819  1.0000
  C   C4        1.0  0.5981522794764265  0.3075520825996317  0.017454802273972447  1.0000
  C   C5        1.0  0.5415751286413929  0.30628523674199887  0.13029589694610766  1.0000
  C   C6        1.0  0.4508758909942613  0.2823948710735849  0.11892347387694024  1.0000
  C   C7        1.0  0.3954486065753485  0.32574959009880816  0.22314674701574175  1.0000
  C   C8        1.0  0.30985519015655116  0.30309114435619966  0.21225411406018635  1.0000
  C   C9        1.0  0.2536595224874687  0.3482068989497882  0.31910986224693483  1.0000
  N   N2        1.0  0.20849479325844214  0.3844735932832939  0.4050051497500753  1.0000
  C   C10       1.0  0.2789631234070097  0.23696609579071873  0.09715342455072529  1.0000
  C   C11       1.0  0.3333829069733255  0.19373243654800065  0.9931650734335129  1.0000
  C   C12       1.0  0.41876837517308024  0.21622244443747762  0.003617556102455174  1.0000
  N   N3        1.0  0.5813267301839312  0.3300215634946246  0.25410597370488985  1.0000
  H   H1        1.0  0.7335064979141651  0.3415167614713601  0.018162396342015445  1.0000
  H   H2        1.0  0.5853797125291033  0.29308524318575735  0.9051645736670858  1.0000
  H   H3        1.0  0.4181609360627736  0.37875293157748635  0.31171148388027414  1.0000
  H   H4        1.0  0.2129019684418483  0.21894254322498563  0.08779455344074161  1.0000
  H   H5        1.0  0.3093786794316333  0.14236915989494553  0.904340789870389  1.0000
  H   H6        1.0  0.459522527138514  0.18027757686706952  0.9223230097434643  1.0000
  H   H7        1.0  0.5556346708792119  0.33302559695737854  0.35705549632061206  1.0000
  C   C13       1.0  0.9927144393889482  0.00790262836507982  0.4059146149827666  1.0000
  C   C14       1.0  0.006064577129413662  0.016052685093287385  0.2560241135431842  1.0000
  C   C15       1.0  0.01392955850776856  0.9028358661382331  0.18079734774022782  1.0000
  C   C16       1.0  0.005876283938470285  0.7808975600760906  0.25606085893953523  1.0000
  C   C17       1.0  0.9925451359025255  0.7705916677105527  0.405910736621675  1.0000
  C   C18       1.0  0.9863486139795217  0.8846840137488455  0.4801327602605565  1.0000
  N   N4        1.0  0.026298969635446534  0.9096163122451305  0.026979080209102998  1.0000
  C   C19       1.0  0.0748463836571509  0.007163161546706042  0.9493253835268476  1.0000
  O   O1        1.0  0.12219390075670811  0.07952828940453971  0.01568911895590564  1.0000
  C   C20       1.0  0.07413252160880002  0.01705141026664214  0.787859309515659  1.0000
  H   H8        1.0  0.00869409429552892  0.1104756461659393  0.19737439720018712  1.0000
  H   H9        1.0  0.01077421425068947  0.6940565484786057  0.19703799978589465  1.0000
  H   H10       1.0  0.9760747848907784  0.877588340031978  0.5957449962869021  1.0000
  H   H11       1.0  0.0030841377069323935  0.8343426398123543  0.9691603834301916  1.0000
  H   H12       1.0  0.010183700742565584  0.0011754334368088183  0.7472607153006563  1.0000
  H   H13       1.0  0.09459121533904313  0.1149946461105076  0.7457439735017064  1.0000
  H   H14       1.0  0.11694781040240296  0.9421290645140945  0.7480020434420362  1.0000
  C   C21       1.0  0.9906681005484776  0.38663318001270947  0.9826353898022931  1.0000
  C   C22       1.0  0.9363323340775404  0.47252714171336146  0.048835481944292  1.0000
  C   C23       1.0  0.8886798152911625  0.5647073736151393  0.9660987398058865  1.0000
  C   C24       1.0  0.8945010959689561  0.5728770328697099  0.8156439047564685  1.0000
  C   C25       1.0  0.947107384450927  0.48692612312218975  0.7476952017191563  1.0000
  C   C26       1.0  0.9945914897230334  0.3918611279593307  0.8291900216817192  1.0000
  C   C27       1.0  0.8456378116903269  0.6686538671076442  0.7305422821902026  1.0000
  C   C28       1.0  0.8047295856134944  0.7488415465147108  0.659276112902746  1.0000
  H   H15       1.0  0.16389206312184101  0.21232699176863012  0.10051716663127164  1.0000
  H   H16       1.0  0.9321657372566939  0.4704363617863257  0.1655230158439327  1.0000
  H   H17       1.0  0.8478497530341115  0.6305422941849239  0.0197072224603847  1.0000
  H   H18       1.0  0.9494945484077993  0.49226942475446217  0.6306005910252548  1.0000
  H   H19       1.0  0.10941818859049326  0.27041772489812765  0.5588971276866466  1.0000
  H   H20       1.0  0.7688206550835722  0.8192292275284023  0.5967177345268153  1.0000
  Zn  Zn1       1.0  0.9013470840289158  0.3912693383093702  0.40629591530587206  1.0000
  Zn  Zn2       1.0  0.08390452611188182  0.38722448280304367  0.40552882215263075  1.0000
  C   C29       1.0  0.9938491731699625  0.38569953156134984  0.6691730667942661  1.0000
  C   C30       1.0  0.9914044307843961  0.3927958847912021  0.14265180375295916  1.0000
  C   C31       1.0  0.9925462412571014  0.6263918093403723  0.4001676320638683  1.0000
  C   C32       1.0  0.9927073011056261  0.15210204864383314  0.4116573156002332  1.0000
  O   O2        1.0  0.0609311490599338  0.3933234777741832  0.19606366621757698  1.0000
  O   O3        1.0  0.0628793276381776  0.3821010046056339  0.6151785834528984  1.0000
  O   O4        1.0  0.0618262666647218  0.5764630928297583  0.39795479556751157  1.0000
  O   O5        1.0  0.06198414723596102  0.19896139955262318  0.41328734628956765  1.0000
  O   O6        1.0  0.9232674006069059  0.5795324229414685  0.39853739142312516  1.0000
  O   O7        1.0  0.9243204608740618  0.38517189446736794  0.615761102445826  1.0000
  O   O8        1.0  0.9223722743297006  0.39639431167896655  0.19664445222852134  1.0000
  O   O9        1.0  0.9234252730052256  0.2020322248365196  0.4138682403680982  1.0000
