data_image0
_chemical_formula_structural       NC6NCNCH5C7NH3C9H9Zn2C4O8
_chemical_formula_sum              "N4 C28 H17 Zn2 O8"
_cell_length_a       14.933214217465613
_cell_length_b       9.275154477615127
_cell_length_c       10.297187173949778
_cell_angle_alpha    85.79368962705624
_cell_angle_beta     89.94016841995526
_cell_angle_gamma    89.46799387830556

_space_group_name_H-M_alt    "P 1"
_space_group_IT_number       1

loop_
  _space_group_symop_operation_xyz
  'x, y, z'

loop_
  _atom_site_type_symbol
  _atom_site_label
  _atom_site_symmetry_multiplicity
  _atom_site_fract_x
  _atom_site_fract_y
  _atom_site_fract_z
  _atom_site_occupancy
  N   N1        1.0  0.8339875347799541  0.5785592661893355  0.5720387144866536  1.0000
  C   C1        1.0  0.756491433357794  0.5795556308088083  0.5711496870591826  1.0000
  C   C2        1.0  0.660085709917434  0.5807978429567426  0.570041179261242  1.0000
  C   C3        1.0  0.6128225655870393  0.485065355946811  0.6554778970710089  1.0000
  C   C4        1.0  0.5192827942704213  0.4861478840704544  0.6545118185198577  1.0000
  C   C5        1.0  0.4721041348881157  0.582908049278126  0.5681579795379752  1.0000
  C   C6        1.0  0.37554096627056094  0.5807999989524082  0.5700393208442509  1.0000
  N   N2        1.0  0.2980656347005872  0.5790414192065491  0.5716084388313969  1.0000
  C   C7        1.0  0.5194589580696598  0.6798493765670984  0.48164254432389714  1.0000
  N   N3        1.0  0.47355766512244507  0.7804203593345926  0.3918879424758947  1.0000
  C   C8        1.0  0.6134847496965667  0.677801023637612  0.48347070725736846  1.0000
  H   H1        1.0  0.6482626591517625  0.4095867281690011  0.722838964562308  1.0000
  H   H2        1.0  0.4836381595995014  0.41130419425516634  0.7213061187717705  1.0000
  H   H3        1.0  0.5094967989764831  0.8514532518412348  0.32849440809034824  1.0000
  H   H4        1.0  0.40378481667996463  0.7857715933503566  0.3871122835059191  1.0000
  H   H5        1.0  0.6502582357199768  0.751891662771189  0.41734832109642983  1.0000
  C   C9        1.0  0.06862262872179858  0.15541351977045914  0.5703180418049107  1.0000
  C   C10       1.0  0.04407857171267482  0.23855145604187028  0.4558110482637243  1.0000
  C   C11       1.0  0.01224890234001209  0.17246514280029818  0.347377620645255  1.0000
  C   C12       1.0  0.004439041777477565  0.02233715899722679  0.3521742863290433  1.0000
  C   C13       1.0  0.02981386356210305  0.9379920540175778  0.4640698952758184  1.0000
  C   C14       1.0  0.06343916953292641  0.0021760652282307763  0.5733403678165923  1.0000
  C   C15       1.0  0.9865139250140426  0.25918346554196736  0.23149134907285915  1.0000
  N   N4        1.0  0.9658301424454224  0.3288891024598493  0.13834847022282545  1.0000
  H   H6        1.0  0.08588636226648982  0.2321460825296427  0.8891510972969526  1.0000
  H   H7        1.0  0.9794987954939943  0.9701732824196422  0.26883682940144754  1.0000
  H   H8        1.0  0.07886365223466286  0.7034510373386573  0.7869640080437224  1.0000
  C   C16       1.0  0.06614960002555392  0.5787427876734916  0.19037573603562685  1.0000
  C   C17       1.0  0.9751583699835927  0.6182495385951208  0.18711930421001965  1.0000
  C   C18       1.0  0.9285408824237389  0.6384897697335816  0.06883453357021141  1.0000
  C   C19       1.0  0.9748056466476218  0.6184021331101794  0.9518974512171612  1.0000
  C   C20       1.0  0.06591220202376036  0.5788468020347179  0.9532826373546004  1.0000
  C   C21       1.0  0.11098922792500909  0.5592740197482815  0.07291222367239492  1.0000
  C   C22       1.0  0.8301273109221817  0.6812188494203518  0.07474463879828885  1.0000
  C   C23       1.0  0.7677904614536335  0.6231630922863733  0.974323933894865  1.0000
  C   C24       1.0  0.7934448820590707  0.7822510227307113  0.9637674687626525  1.0000
  H   H9        1.0  0.9400308295936948  0.6335016732941324  0.2772845022959287  1.0000
  H   H10       1.0  0.9406528743606284  0.6332273407942433  0.8593749705035258  1.0000
  H   H11       1.0  0.18119070181263644  0.5287930141294979  0.07469727959185835  1.0000
  H   H12       1.0  0.23798354778286024  0.5041194670859448  0.7486836526488133  1.0000
  H   H13       1.0  0.7984957087644786  0.6949539174427166  0.17090030911188567  1.0000
  H   H14       1.0  0.7985149006208336  0.5581195766909217  0.8995385690081226  1.0000
  H   H15       1.0  0.6983124318841647  0.6035824036472941  0.009437406520951933  1.0000
  H   H16       1.0  0.8397534192365164  0.8138445460097565  0.882570555885763  1.0000
  H   H17       1.0  0.7389599303749902  0.8556506583242608  0.9927087375183361  1.0000
  Zn  Zn1       1.0  0.9679104717296019  0.5786945375343162  0.5719220415482845  1.0000
  Zn  Zn2       1.0  0.16414275217396157  0.5788943213773683  0.571735736808817  1.0000
  C   C25       1.0  0.06599022941755095  0.5730834195992422  0.8090563955541814  1.0000
  C   C26       1.0  0.06606512616075344  0.5845072606683865  0.3346015147561651  1.0000
  C   C27       1.0  0.06441595135176793  0.8421191900264534  0.5675927372523457  1.0000
  C   C28       1.0  0.06763934784836945  0.3154697579712058  0.5760652361928983  1.0000
  O   O1        1.0  0.1405059422196805  0.5865113974189358  0.3829342794855115  1.0000
  O   O2        1.0  0.14048518048451203  0.5712298264470328  0.7605818520273542  1.0000
  O   O3        1.0  0.13921292673715283  0.7884796126507534  0.5655982458570292  1.0000
  O   O4        1.0  0.14177812897342768  0.3692616214475528  0.5779177883599702  1.0000
  O   O5        1.0  0.9902750279656815  0.7883272373975241  0.5657399900538813  1.0000
  O   O6        1.0  0.9915472711267533  0.5710791833971647  0.7607235331460587  1.0000
  O   O7        1.0  0.9915680337150317  0.5863607039141501  0.38307439867804755  1.0000
  O   O8        1.0  0.9928402204979371  0.36911091764382165  0.5780580049051227  1.0000
