data_image0
_chemical_formula_structural       NC9NC4H8C8NH6C7F3H5Zn2C4O8
_chemical_formula_sum              "N3 C32 H19 F3 Zn2 O8"
_cell_length_a       16.32274767691083
_cell_length_b       9.274263428431858
_cell_length_c       9.272721663655245
_cell_angle_alpha    85.8307011284179
_cell_angle_beta     89.98655041730063
_cell_angle_gamma    90.1410557844374

_space_group_name_H-M_alt    "P 1"
_space_group_IT_number       1

loop_
  _space_group_symop_operation_xyz
  'x, y, z'

loop_
  _atom_site_type_symbol
  _atom_site_label
  _atom_site_symmetry_multiplicity
  _atom_site_fract_x
  _atom_site_fract_y
  _atom_site_fract_z
  _atom_site_occupancy
  N   N1        1.0  0.7728162058511664  0.5594125266830321  0.39653507932196236  1.0000
  C   C1        1.0  0.7198565317989014  0.5063967167429162  0.3362995279939136  1.0000
  C   C2        1.0  0.654027723387506  0.4405506679777374  0.2614864915738686  1.0000
  C   C3        1.0  0.6645201544149497  0.3504849974835602  0.15915080557968775  1.0000
  C   C4        1.0  0.5846371189342248  0.306532494178019  0.10921439545489564  1.0000
  C   C5        1.0  0.5264613768329953  0.37085601500211984  0.18230350247218885  1.0000
  C   C6        1.0  0.43632376763997754  0.35385590803479433  0.16299062578447288  1.0000
  C   C7        1.0  0.3816104687114705  0.42882908085579463  0.24817249188700696  1.0000
  C   C8        1.0  0.2967309172666471  0.41429997084513426  0.2316664833844435  1.0000
  C   C9        1.0  0.24163282196144184  0.49157795222409595  0.31946614452783195  1.0000
  N   N2        1.0  0.19735274288763474  0.5536967305502345  0.3900422012182967  1.0000
  C   C10       1.0  0.2655102025523721  0.32467643716416017  0.1298415398763428  1.0000
  C   C11       1.0  0.3189027541440293  0.24980257386107943  0.04477288228671371  1.0000
  C   C12       1.0  0.40361890170913994  0.2639403358520698  0.06083412134300614  1.0000
  C   C13       1.0  0.5653195715091389  0.46464677345282257  0.2888688712715153  1.0000
  H   H1        1.0  0.7230153731078869  0.3154626916210035  0.11935477632209346  1.0000
  H   H2        1.0  0.5754753007344737  0.23292193281298387  0.025575361743017003  1.0000
  H   H3        1.0  0.4045464879238143  0.4987953584958013  0.32766414463910243  1.0000
  H   H4        1.0  0.1999775630281656  0.31270746180121467  0.11624426191654291  1.0000
  H   H5        1.0  0.2945781540485906  0.1804704160215569  0.9660019636830225  1.0000
  H   H6        1.0  0.442695131702077  0.20404606721836227  0.9927851089465665  1.0000
  H   H7        1.0  0.5488886224186008  0.42667634628400397  0.4015903515546797  1.0000
  H   H8        1.0  0.5491198811015  0.5800849525753436  0.26416895090721026  1.0000
  C   C14       1.0  0.9824977236452147  0.13300767762232146  0.393634635512069  1.0000
  C   C15       1.0  0.9712320131313178  0.2157920425402511  0.26202480957124535  1.0000
  C   C16       1.0  0.9680070618728017  0.15020367916447408  0.13148492868724213  1.0000
  C   C17       1.0  0.9766339532674769  0.00029446013726785834  0.12931581404756542  1.0000
  C   C18       1.0  0.9856966689421223  0.9160302762756332  0.2600754220651806  1.0000
  C   C19       1.0  0.9876790765605946  0.9800904444708229  0.3929550295162363  1.0000
  C   C20       1.0  0.9719353402670647  0.9295937121753811  0.9886965044027751  1.0000
  C   C21       1.0  0.8867763701119792  0.8916271172840322  0.9579514721463513  1.0000
  N   N3        1.0  0.8195622598851522  0.861659599471007  0.9336946084302329  1.0000
  H   H9        1.0  0.05489961776825015  0.21213370533787645  0.7249720419396478  1.0000
  H   H10       1.0  0.9666914606250336  0.33245904574116314  0.2597325828826844  1.0000
  H   H11       1.0  0.9595433398930151  0.21669420895710248  0.03168535585989929  1.0000
  H   H12       1.0  0.03324687441958485  0.6832276242125717  0.6180371533819942  1.0000
  H   H13       1.0  0.009811116805046982  0.8299992672793257  0.9936974705189425  1.0000
  H   H14       1.0  0.9956657622151988  0.0035921351232795036  0.8985986152757235  1.0000
  C   C22       1.0  0.982906661110781  0.5542388741548503  0.9698866226695881  1.0000
  C   C23       1.0  0.01704947476119423  0.4357962873888521  0.05217039494572128  1.0000
  C   C24       1.0  0.05842463829922304  0.32583624098132374  0.9857101315909609  1.0000
  C   C25       1.0  0.06313528165156179  0.3324150807883391  0.8344835606755628  1.0000
  C   C26       1.0  0.028488609615069826  0.4478612760319225  0.7512413208133997  1.0000
  C   C27       1.0  0.9872701526639851  0.5588592253446668  0.8167029992501752  1.0000
  C   C28       1.0  0.09270291538117181  0.19785229596401746  0.07562360965261683  1.0000
  F   F1        1.0  0.12054677523912627  0.2394000203145428  0.20740100405095774  1.0000
  F   F2        1.0  0.15763594921040913  0.1373148524417607  0.005552890387797266  1.0000
  F   F3        1.0  0.03192673173513705  0.09484389404023341  0.09966241223134498  1.0000
  H   H15       1.0  0.9330816576341905  0.8983943223785952  0.046624610106870135  1.0000
  H   H16       1.0  0.012927811882061269  0.43072724496290965  0.16908269704248252  1.0000
  H   H17       1.0  0.09289504285344363  0.24728075443377148  0.780180605433265  1.0000
  H   H18       1.0  0.03200170034041427  0.44827530942135585  0.6345326471329864  1.0000
  H   H19       1.0  0.8417531807123555  0.80410748027194  0.6974652704222191  1.0000
  Zn  Zn1       1.0  0.8953283053809171  0.5577592457491629  0.39466970479300256  1.0000
  Zn  Zn2       1.0  0.07484063800028373  0.5553382403389115  0.3919193972075339  1.0000
  C   C29       1.0  0.9864083692475522  0.5522400186886647  0.6566412274221225  1.0000
  C   C30       1.0  0.9837625462633864  0.5608592615790835  0.12994798460246135  1.0000
  C   C31       1.0  0.9866658633005543  0.819942442073543  0.3873378929562401  1.0000
  C   C32       1.0  0.9835049807520571  0.29315510657347477  0.39925139826811895  1.0000
  O   O1        1.0  0.052173745343475186  0.5621560727891883  0.1826223174988384  1.0000
  O   O2        1.0  0.054242868198797645  0.5491046300496532  0.6018790605230862  1.0000
  O   O3        1.0  0.05444988728428135  0.7652777430574844  0.38441472544303235  1.0000
  O   O4        1.0  0.0519666645086414  0.3459829703353157  0.4000865454005777  1.0000
  O   O5        1.0  0.918202217613781  0.7671145165804586  0.38650255753091795  1.0000
  O   O6        1.0  0.9179952087278462  0.5509431360210568  0.6039668143421562  1.0000
  O   O7        1.0  0.9159260766871096  0.5639945190404725  0.1847083378394656  1.0000
  O   O8        1.0  0.9157189963428477  0.34782140686034  0.40217267385047895  1.0000
