data_image0
_chemical_formula_structural       NC9NC5H8C7OC4NC3H8C7OC4NC3H9Zn2C4O8
_chemical_formula_sum              "N4 C46 H25 O10 Zn2"
_cell_length_a       17.807436237873137
_cell_length_b       10.299371701877256
_cell_length_c       10.299375074045736
_cell_angle_alpha    85.55924318392921
_cell_angle_beta     89.38493469783968
_cell_angle_gamma    88.40037932452064

_space_group_name_H-M_alt    "P 1"
_space_group_IT_number       1

loop_
  _space_group_symop_operation_xyz
  'x, y, z'

loop_
  _atom_site_type_symbol
  _atom_site_label
  _atom_site_symmetry_multiplicity
  _atom_site_fract_x
  _atom_site_fract_y
  _atom_site_fract_z
  _atom_site_occupancy
  N   N1        1.0  0.7076515048520978  0.3882949116369322  0.5575399957888431  1.0000
  C   C1        1.0  0.6470611022704279  0.3531094296610137  0.5465033379764246  1.0000
  C   C2        1.0  0.5716933009089684  0.309342564917362  0.5327749340242047  1.0000
  C   C3        1.0  0.5536016443291814  0.23796722803348302  0.427742184692135  1.0000
  C   C4        1.0  0.4804233923785363  0.1953615102489088  0.4143301183431307  1.0000
  C   C5        1.0  0.4242880418823433  0.22375361292020512  0.5059182172010428  1.0000
  C   C6        1.0  0.34651843035642266  0.17858959325763446  0.49174678222007784  1.0000
  C   C7        1.0  0.2843487299296144  0.2603357762122023  0.5177153098991607  1.0000
  C   C8        1.0  0.21102815131680083  0.21752701572893196  0.504316854949492  1.0000
  C   C9        1.0  0.1478086132830163  0.301964406512502  0.5306502364307669  1.0000
  N   N2        1.0  0.0969930924451469  0.36984622657510924  0.5518215465931197  1.0000
  C   C10       1.0  0.199293703466737  0.09271410257099899  0.46492443188704297  1.0000
  C   C11       1.0  0.2606060332144134  0.010954070515199572  0.4389475092962636  1.0000
  C   C12       1.0  0.333807152963914  0.05336836726883898  0.4521432791444984  1.0000
  C   C13       1.0  0.4430711389486324  0.2956232323247865  0.6111703783135335  1.0000
  C   C14       1.0  0.5163022531884747  0.3380386148268091  0.6244267202564997  1.0000
  H   H1        1.0  0.5959991033550188  0.21550906159954009  0.35601811541143286  1.0000
  H   H2        1.0  0.4675109290371017  0.1417105997805621  0.33138698397930294  1.0000
  H   H3        1.0  0.2928542625032978  0.3577895122440322  0.5466275406381635  1.0000
  H   H4        1.0  0.1428258959196132  0.05868213972064716  0.4543172344811097  1.0000
  H   H5        1.0  0.251402321471079  0.9143208834724987  0.4088350925871934  1.0000
  H   H6        1.0  0.3804425155388785  0.9876306938511035  0.43307116131498735  1.0000
  H   H7        1.0  0.40139041727861147  0.3175418637191405  0.6841888226796256  1.0000
  H   H8        1.0  0.5297432619981154  0.392910499536182  0.70632859974106  1.0000
  C   C15       1.0  0.9022865999523019  0.9977018890726204  0.5545543191035427  1.0000
  C   C16       1.0  0.9059460212172963  0.006921482448249086  0.4178321952631657  1.0000
  C   C17       1.0  0.9069386935928088  0.8944431218543009  0.34882347470750924  1.0000
  C   C18       1.0  0.9059552929361345  0.7716526063612413  0.41814946304835315  1.0000
  C   C19       1.0  0.9023651728936325  0.7604289228242713  0.5548183838844808  1.0000
  C   C20       1.0  0.9003539418787313  0.8740638561153719  0.6222171187139212  1.0000
  C   C21       1.0  0.911591776829359  0.9039972107916783  0.204501469634647  1.0000
  O   O1        1.0  0.9477533949902529  0.8165578455999344  0.14902308158027425  1.0000
  C   C22       1.0  0.8752091104400943  0.012665681003322994  0.12312156332014547  1.0000
  C   C23       1.0  0.9073924478529598  0.05583072359816855  0.0026755457211675754  1.0000
  C   C24       1.0  0.8729909285617206  0.1573940686490844  0.9243880247972781  1.0000
  C   C25       1.0  0.9066318603362371  0.2016749288012765  0.8017343941045417  1.0000
  N   N3        1.0  0.9336776708049386  0.23726717517134843  0.7031386118259372  1.0000
  C   C26       1.0  0.805845259534623  0.2157388302076726  0.9655470835910936  1.0000
  C   C27       1.0  0.773027853968572  0.17239386877412177  0.08426281982452591  1.0000
  C   C28       1.0  0.8072136716698903  0.07113822336201436  0.16254211093682813  1.0000
  H   H9        1.0  0.9088699862540977  0.10172682717901083  0.36490127755019464  1.0000
  H   H10       1.0  0.9072773624251395  0.684772647133565  0.36511643346752654  1.0000
  H   H11       1.0  0.8975332064902152  0.8661523120671434  0.7276201248931549  1.0000
  H   H12       1.0  0.9016183261237318  0.42862690288530103  0.6073559621492186  1.0000
  H   H13       1.0  0.9594938810104982  0.01128282639676525  0.9703326171552692  1.0000
  H   H14       1.0  0.7787669072904063  0.29426111285126466  0.9057037690298642  1.0000
  H   H15       1.0  0.7207982206753502  0.21696446550077875  0.11545459574823025  1.0000
  H   H16       1.0  0.7800661701750322  0.03768033080673128  0.2530994677981455  1.0000
  C   C29       1.0  0.9023514372937966  0.37920656061268243  0.17329926705147683  1.0000
  C   C30       1.0  0.9601884007384465  0.4695770815388115  0.1640386672389549  1.0000
  C   C31       1.0  0.9887762346856626  0.5162653494169791  0.042119391916652496  1.0000
  C   C32       1.0  0.9600667413499056  0.4693451102364128  0.9288150552199543  1.0000
  C   C33       1.0  0.902300308777476  0.3789242984948624  0.936073475070137  1.0000
  C   C34       1.0  0.873642240435716  0.33463592053515434  0.05879088935487364  1.0000
  C   C35       1.0  0.05038741133129498  0.610664966901687  0.03227077726465467  1.0000
  O   O2        1.0  0.09839573681617098  0.6037051025442784  0.941929095758929  1.0000
  C   C36       1.0  0.05752498323177479  0.7129724212086941  0.12482813714754704  1.0000
  C   C37       1.0  0.12897043558078103  0.7561481267566157  0.1555515388331472  1.0000
  C   C38       1.0  0.13626042910227443  0.8538146670852181  0.24169528279687524  1.0000
  C   C39       1.0  0.20962948405007384  0.8966898955966055  0.27342146799524225  1.0000
  N   N4        1.0  0.26860993796991584  0.9311511319561501  0.2989219833365085  1.0000
  C   C40       1.0  0.07211204600741539  0.909705448806866  0.2968492626027974  1.0000
  C   C41       1.0  0.0009170701306733248  0.8685295281090928  0.26562192832317266  1.0000
  C   C42       1.0  0.993477692826225  0.7711400511927828  0.17975603107720842  1.0000
  H   H17       1.0  0.7939962106373849  0.20716573294416207  0.3981978808229654  1.0000
  H   H18       1.0  0.983646161267341  0.5026669195813565  0.2518892770826071  1.0000
  H   H19       1.0  0.9824321729431932  0.5045212582253427  0.8347540053080329  1.0000
  H   H20       1.0  0.8290544172414828  0.2649661709790885  0.06512631244949497  1.0000
  H   H21       1.0  0.8805421896578404  0.34336848346156684  0.611460208938778  1.0000
  H   H22       1.0  0.17891008952276843  0.7130615878466964  0.1134232337294521  1.0000
  H   H23       1.0  0.07713141310373639  0.9853457271067658  0.3634811191187909  1.0000
  H   H24       1.0  0.9513518012451975  0.9125770265749611  0.30759625633842336  1.0000
  H   H25       1.0  0.9376734769600099  0.7423906994010316  0.1552614170154694  1.0000
  Zn  Zn1       1.0  0.820007074737122  0.3829675515793875  0.555897284826751  1.0000
  Zn  Zn2       1.0  0.9846375025570863  0.3751629965182086  0.553474931010781  1.0000
  C   C43       1.0  0.9023077829367143  0.3738040359943759  0.7918910218618765  1.0000
  C   C44       1.0  0.9023385922769045  0.38432806544842557  0.3174812955634698  1.0000
  C   C45       1.0  0.9023467988570238  0.6162593922606128  0.5495931121884636  1.0000
  C   C46       1.0  0.9022995200143671  0.1418711515187563  0.5597792747651882  1.0000
  O   O3        1.0  0.9648106701672428  0.3830794355493648  0.3649508288406569  1.0000
  O   O4        1.0  0.9647863903970554  0.369128209603991  0.7425826038847745  1.0000
  O   O5        1.0  0.9648170539440397  0.5649140154819974  0.5469253403854876  1.0000
  O   O6        1.0  0.9647799504505266  0.18729364166077533  0.5606079957904387  1.0000
  O   O7        1.0  0.8398645706633968  0.5708369091015497  0.548764220866893  1.0000
  O   O8        1.0  0.839833907278356  0.3750526635517033  0.7444214156576738  1.0000
  O   O9        1.0  0.8398581871984622  0.38900384481666567  0.3667880791220673  1.0000
  O   O10       1.0  0.8398274674711931  0.19321804160338685  0.562445343441154  1.0000
