data_image0
_chemical_formula_structural       NC6NC2H4C6NH5C6NH7Zn2C4O8
_chemical_formula_sum              "N4 C24 H16 Zn2 O8"
_cell_length_a       14.927258858638513
_cell_length_b       9.274771166103582
_cell_length_c       9.274774538082514
_cell_angle_alpha    84.9550519661537
_cell_angle_beta     90.34966586359073
_cell_angle_gamma    90.59705168739299

_space_group_name_H-M_alt    "P 1"
_space_group_IT_number       1

loop_
  _space_group_symop_operation_xyz
  'x, y, z'

loop_
  _atom_site_type_symbol
  _atom_site_label
  _atom_site_symmetry_multiplicity
  _atom_site_fract_x
  _atom_site_fract_y
  _atom_site_fract_z
  _atom_site_occupancy
  N   N1        1.0  0.8478319142633212  0.5925437730800285  0.4051315781131395  1.0000
  C   C1        1.0  0.770305422950814  0.5925437444700152  0.4051315887665783  1.0000
  C   C2        1.0  0.6738729159646683  0.5925438600352921  0.4051315386367689  1.0000
  C   C3        1.0  0.6261934825273493  0.5699505055852139  0.2783392223279799  1.0000
  C   C4        1.0  0.5324821708505353  0.5699505323914683  0.2783390886651016  1.0000
  C   C5        1.0  0.48605685089400474  0.5925436822727486  0.405131557613162  1.0000
  C   C6        1.0  0.3896242769163197  0.5925437978410425  0.40513150747741555  1.0000
  N   N2        1.0  0.3120977856038128  0.5925437692310292  0.4051315181308546  1.0000
  C   C7        1.0  0.5337362173397848  0.6151370367258436  0.5319238739160141  1.0000
  C   C8        1.0  0.6274475290165983  0.6151370099195894  0.5319240075788927  1.0000
  H   H1        1.0  0.6614017917381948  0.5523716031074184  0.17968752323504633  1.0000
  H   H2        1.0  0.4962981374865831  0.5523718007438201  0.1796875179322932  1.0000
  H   H3        1.0  0.4985279754542562  0.6327159279411754  0.6305756812407711  1.0000
  H   H4        1.0  0.6636315634194954  0.6327158379646136  0.6305756882925238  1.0000
  C   C9        1.0  0.07722175943466586  0.16894036180290284  0.4059182317729278  1.0000
  C   C10       1.0  0.05612510732488719  0.25337264141196414  0.27685327174502317  1.0000
  C   C11       1.0  0.0433895119664576  0.18945391178722096  0.14696944977835957  1.0000
  C   C12       1.0  0.05179401810359696  0.03973361899159534  0.14520982717140618  1.0000
  C   C13       1.0  0.07122748509648824  0.9539973453494394  0.2725018121184719  1.0000
  C   C14       1.0  0.08271651697060661  0.01613598740252686  0.4043574183274144  1.0000
  N   N3        1.0  0.02283795779688737  0.27699803756477315  0.016485990988398095  1.0000
  H   H5        1.0  0.17922125797047161  0.24585105601704418  0.7217798917614346  1.0000
  H   H6        1.0  0.04241925935773149  0.9891163220634089  0.045277330144239736  1.0000
  H   H7        1.0  0.14779440787125853  0.7171989590571739  0.6192551838768929  1.0000
  H   H8        1.0  0.016665556807559996  0.3890723471446762  0.016439114679747572  1.0000
  H   H9        1.0  0.013556404117273336  0.23037728660082912  0.9189270096781198  1.0000
  C   C15       1.0  0.0783853441953602  0.5962275972723572  0.9813146980462828  1.0000
  C   C16       1.0  0.142414941422902  0.6813530229361933  0.04789436767077304  1.0000
  C   C17       1.0  0.21038647913581843  0.7545958713734456  0.9669945026721298  1.0000
  C   C18       1.0  0.21487723554634142  0.7430454768804896  0.8180383670643314  1.0000
  C   C19       1.0  0.15115566066680453  0.6610977627954022  0.7497502803320408  1.0000
  C   C20       1.0  0.08155291034038759  0.5888486759242815  0.8289609187657022  1.0000
  N   N4        1.0  0.2754432052538951  0.8395206119810302  0.03657978706525932  1.0000
  H   H10       1.0  0.9426502878408334  0.31424164360038526  0.10775454934096751  1.0000
  H   H11       1.0  0.14084675821055104  0.6881944682908787  0.16390189273474287  1.0000
  H   H12       1.0  0.2673510761405104  0.7987783993859846  0.7544049098508268  1.0000
  H   H13       1.0  0.15512436086940284  0.6570852430698932  0.6335846228933448  1.0000
  H   H14       1.0  0.9874077675465371  0.4033126475550307  0.5632209734702847  1.0000
  H   H15       1.0  0.27290045328123824  0.848566560181043  0.14793304426440268  1.0000
  H   H16       1.0  0.3266166662618295  0.8941191686257913  0.9772371045599986  1.0000
  Zn  Zn1       1.0  0.9818090301114103  0.5925398340681811  0.4051399074045152  1.0000
  Zn  Zn2       1.0  0.17812064824641596  0.5925357895700316  0.4051350498110695  1.0000
  C   C21       1.0  0.0809149078304024  0.5844968472992822  0.668748222015238  1.0000
  C   C22       1.0  0.07901692657827325  0.6005805951489469  0.14152687345012205  1.0000
  C   C23       1.0  0.08165177673556095  0.8560480155800708  0.39890114580609737  1.0000
  C   C24       1.0  0.0782799797326943  0.3290276931025542  0.41137402980023086  1.0000
  O   O1        1.0  0.15372808657480186  0.6020336729456532  0.19529371123490713  1.0000
  O   O2        1.0  0.15519971504616734  0.5830396152175679  0.6149772839715453  1.0000
  O   O3        1.0  0.15579374732872342  0.8023206047943773  0.3970738579813178  1.0000
  O   O4        1.0  0.15313398696692856  0.3827526946313078  0.4131970289933111  1.0000
  O   O5        1.0  0.006795624399358107  0.8023229290099216  0.3970779282163368  1.0000
  O   O6        1.0  0.006201603065683295  0.5830436732017323  0.6149812740596596  1.0000
  O   O7        1.0  0.004729967843530189  0.6020376957673244  0.1952959661989635  1.0000
  O   O8        1.0  0.004135868569435262  0.3827567061935318  0.41319939218325463  1.0000
