data_image0
_chemical_formula_structural       NC8NC6H8C6BrH3C6OCH6Zn2C4O8
_chemical_formula_sum              "N2 C31 H17 Br1 O9 Zn2"
_cell_length_a       17.457602349358154
_cell_length_b       10.302969083221269
_cell_length_c       9.273891588657152
_cell_angle_alpha    86.0762880013574
_cell_angle_beta     92.54290593679646
_cell_angle_gamma    91.68807063265206

_space_group_name_H-M_alt    "P 1"
_space_group_IT_number       1

loop_
  _space_group_symop_operation_xyz
  'x, y, z'

loop_
  _atom_site_type_symbol
  _atom_site_label
  _atom_site_symmetry_multiplicity
  _atom_site_fract_x
  _atom_site_fract_y
  _atom_site_fract_z
  _atom_site_occupancy
  N   N1        1.0  0.7269503109746125  0.44018167877564635  0.4759889988293109  1.0000
  C   C1        1.0  0.6659073539529137  0.3941772224284945  0.4642099378703661  1.0000
  C   C2        1.0  0.5899673009464504  0.3369534758731805  0.44956737366858035  1.0000
  C   C3        1.0  0.5311919032281069  0.3777664631856919  0.5326728369000848  1.0000
  C   C4        1.0  0.45668790856028496  0.32266574086422617  0.5187120447417948  1.0000
  C   C5        1.0  0.39430704578250014  0.365760360002311  0.6067238822221648  1.0000
  C   C6        1.0  0.319944109005823  0.38372828646869583  0.5448494313324868  1.0000
  C   C7        1.0  0.2611683527633596  0.4243583652483161  0.6280746785554674  1.0000
  C   C8        1.0  0.1853745600599366  0.44291230257429137  0.5637419815744564  1.0000
  N   N2        1.0  0.12444926673599255  0.45782329189593934  0.512018660803103  1.0000
  C   C9        1.0  0.2762616951567767  0.44726808947871244  0.7737386210033981  1.0000
  C   C10       1.0  0.34983865088561705  0.4296924605721478  0.8360431455608723  1.0000
  C   C11       1.0  0.4086012941317571  0.38924643657180136  0.7533257797947444  1.0000
  C   C12       1.0  0.44225267855536177  0.2260621250428756  0.42005584080024216  1.0000
  C   C13       1.0  0.5010150402171755  0.1855312743790805  0.33739421589634944  1.0000
  C   C14       1.0  0.5747324572793329  0.2407492125552653  0.3519652250227887  1.0000
  H   H1        1.0  0.5433164120777166  0.45352725979629965  0.6066053790556023  1.0000
  H   H2        1.0  0.3079352530999049  0.36785816149516  0.4316444270799549  1.0000
  H   H3        1.0  0.23120687401713375  0.4786625715835234  0.8390220784288587  1.0000
  H   H4        1.0  0.3613350255744207  0.4471164309066534  0.9488339847127045  1.0000
  H   H5        1.0  0.4649349991207792  0.37466833820679146  0.8044848879427242  1.0000
  H   H6        1.0  0.3858031185572931  0.18064682533503043  0.408236704952079  1.0000
  H   H7        1.0  0.48940828933804  0.11087595111744042  0.2621320323176026  1.0000
  H   H8        1.0  0.619785638294745  0.20848984696249542  0.28724890515149637  1.0000
  C   C15       1.0  0.925703428622101  0.06775517115942423  0.49401043491582963  1.0000
  C   C16       1.0  0.0051513727445817795  0.06856471937827346  0.5255035066564926  1.0000
  C   C17       1.0  0.04456182980759671  0.9520284467224377  0.541125578450508  1.0000
  C   C18       1.0  0.005151433779118522  0.8334823602672955  0.5255032386867857  1.0000
  C   C19       1.0  0.9257034406983667  0.8302401882767166  0.49401034045048214  1.0000
  C   C20       1.0  0.8863631206589354  0.9479945557632999  0.4784159483208739  1.0000
  Br  Br1       1.0  0.15262470867773903  0.9547839300296516  0.5839619675221852  1.0000
  H   H9        1.0  0.03677809654383867  0.15937047984510208  0.5380404616165013  1.0000
  H   H10       1.0  0.036778188725087764  0.744289544525086  0.5380398206856849  1.0000
  H   H11       1.0  0.8250898101291668  0.9464321078789466  0.45412747282650034  1.0000
  C   C21       1.0  0.9269599583599596  0.4456150661945242  0.07084895366782007  1.0000
  C   C22       1.0  0.9897728257894285  0.5032388726846064  0.1451160640015574  1.0000
  C   C23       1.0  0.04823501700868337  0.570364072010028  0.07060537798548672  1.0000
  C   C24       1.0  0.04409339502439803  0.5802000584762548  0.9187893636160163  1.0000
  C   C25       1.0  0.9828919368501629  0.5218616650092538  0.8433261151022977  1.0000
  C   C26       1.0  0.9244468948616531  0.45238026167982914  0.9171718071843613  1.0000
  O   O1        1.0  0.10895321789881862  0.6262964430589015  0.15131553373039064  1.0000
  C   C27       1.0  0.17211442363504081  0.6974252176020983  0.08996414489922588  1.0000
  H   H12       1.0  0.7445209182221161  0.35777900384707606  0.16532975877450662  1.0000
  H   H13       1.0  0.08827709302430842  0.6317366784881844  0.8578720733507246  1.0000
  H   H14       1.0  0.8027842659507982  0.3881490589033015  0.6307015526806077  1.0000
  H   H15       1.0  0.15152560530547077  0.7843667160132861  0.0237023672702259  1.0000
  H   H16       1.0  0.20409547380573678  0.6344114720633567  0.022450276394431867  1.0000
  H   H17       1.0  0.21137688455277748  0.7301998351651129  0.17836647208886114  1.0000
  Zn  Zn1       1.0  0.8416598984837915  0.4452692521576192  0.48639470118415873  1.0000
  Zn  Zn2       1.0  0.009739629944965026  0.4527251683909408  0.5016247561483185  1.0000
  C   C28       1.0  0.924920219258876  0.4459294264319824  0.7571985309685305  1.0000
  C   C29       1.0  0.9264811441753776  0.45206671476347005  0.23082123411042457  1.0000
  C   C30       1.0  0.9257165423223698  0.6860682256621966  0.4882677129125133  1.0000
  C   C31       1.0  0.9256847635298673  0.21192635379733726  0.4997521237958453  1.0000
  O   O2        1.0  0.9901058318955458  0.45705576437571804  0.2902891192792183  1.0000
  O   O3        1.0  0.9888641598492076  0.4465982619961617  0.7092894903039986  1.0000
  O   O4        1.0  0.9895063364872027  0.6405133531788646  0.49212587407885344  1.0000
  O   O5        1.0  0.9894635982241514  0.26314067907239824  0.507452622261851  1.0000
  O   O6        1.0  0.8619358728472649  0.6348537389331763  0.480566829865776  1.0000
  O   O7        1.0  0.8612936964339458  0.4409402069434063  0.6977303692566681  1.0000
  O   O8        1.0  0.8625353736757527  0.45139765023453604  0.2787282657288672  1.0000
  O   O9        1.0  0.8618931396804171  0.25748255650884766  0.4958918767491629  1.0000
