data_image0
_chemical_formula_structural       NC8NH4C10H6C6IH3Zn2C4O8
_chemical_formula_sum              "N2 C28 H13 I1 Zn2 O8"
_cell_length_a       13.859017124695912
_cell_length_b       9.275150299802176
_cell_length_c       9.275433903346869
_cell_angle_alpha    85.8435202653109
_cell_angle_beta     89.96561328277663
_cell_angle_gamma    89.4839206584006

_space_group_name_H-M_alt    "P 1"
_space_group_IT_number       1

loop_
  _space_group_symop_operation_xyz
  'x, y, z'

loop_
  _atom_site_type_symbol
  _atom_site_label
  _atom_site_symmetry_multiplicity
  _atom_site_fract_x
  _atom_site_fract_y
  _atom_site_fract_z
  _atom_site_occupancy
  N   N1        1.0  0.8998152524530781  0.5620570958045101  0.4016887096402754  1.0000
  C   C1        1.0  0.827624700795271  0.5385905223563081  0.34567388646340524  1.0000
  C   C2        1.0  0.7378239269223605  0.5094015283540977  0.2759986431864132  1.0000
  C   C3        1.0  0.6500099162860713  0.5378578265570323  0.34392323520812407  1.0000
  C   C4        1.0  0.5625935999423672  0.509402748548244  0.2759980571298233  1.0000
  C   C5        1.0  0.5631737581226712  0.45248364687311  0.14012743135599548  1.0000
  C   C6        1.0  0.6508044441720525  0.4241367231612614  0.07246430018448224  1.0000
  C   C7        1.0  0.7380391306125718  0.4524813089287645  0.1401286226346301  1.0000
  C   C8        1.0  0.4723848567231776  0.5385914440147832  0.34567338335919673  1.0000
  N   N2        1.0  0.39986637619706855  0.562057416256879  0.4016884918737931  1.0000
  H   H1        1.0  0.6497020579518369  0.5819154131012136  0.4490903499878902  1.0000
  H   H2        1.0  0.4960348164666307  0.43008743991961684  0.08666333036400675  1.0000
  H   H3        1.0  0.651111740543728  0.3801691119027402  0.9675101623164569  1.0000
  H   H4        1.0  0.8054910589013421  0.4300830109633911  0.08666553244869624  1.0000
  C   C9        1.0  0.15239020414413096  0.13837739537227622  0.4041008561235255  1.0000
  C   C10       1.0  0.2031831440794909  0.21927008094077574  0.29508871594867725  1.0000
  C   C11       1.0  0.24570369335495434  0.15190221864019818  0.180536725354516  1.0000
  C   C12       1.0  0.23786291614572508  0.002660087427565961  0.17352139318668125  1.0000
  C   C13       1.0  0.18917682250195078  0.9203166751570188  0.2818859451123661  1.0000
  C   C14       1.0  0.14730068623472925  0.9857261471355924  0.3992888939003414  1.0000
  C   C15       1.0  0.2965095099994366  0.2365105326003612  0.06903213400384267  1.0000
  C   C16       1.0  0.3390468159884841  0.307372669630087  0.9756795503713794  1.0000
  C   C17       1.0  0.3888560274900743  0.3903572171141055  0.8663677462448445  1.0000
  C   C18       1.0  0.43138513178539456  0.4612140623135648  0.7730330576465092  1.0000
  H   H5        1.0  0.10653020068435648  0.40313471377131754  0.6329131361284231  1.0000
  H   H6        1.0  0.20781813090789436  0.3357421233539454  0.29731470227989054  1.0000
  H   H7        1.0  0.27024876432639644  0.9495722273744174  0.08488222076028751  1.0000
  H   H8        1.0  0.18622885157650185  0.8042504496275253  0.2756650344673208  1.0000
  H   H9        1.0  0.08444394669695376  0.8588964030625685  0.7416414342557387  1.0000
  H   H10       1.0  0.46872923302813585  0.5234323898348479  0.6910774921031408  1.0000
  C   C19       1.0  0.15004186698877287  0.5575486639245049  0.9785681172431601  1.0000
  C   C20       1.0  0.23894052404149524  0.5548477088061015  0.0520382832082964  1.0000
  C   C21       1.0  0.3258014192672276  0.565441768570939  0.9758593429908169  1.0000
  C   C22       1.0  0.3251540035026211  0.5790736211115584  0.8252362863392646  1.0000
  C   C23       1.0  0.23790328963881668  0.5795937696216389  0.7502579827122027  1.0000
  C   C24       1.0  0.14964904351519892  0.5665548605076169  0.8248215959765206  1.0000
  I   I1        1.0  0.4579795734959602  0.5635265782833863  0.08865455627251673  1.0000
  H   H11       1.0  0.919518980699807  0.6430231142226381  0.07557242887902116  1.0000
  H   H12       1.0  0.3923965080359808  0.5878932107964414  0.7659752408610818  1.0000
  H   H13       1.0  0.9940022241563551  0.6180343703659856  0.5400537912387908  1.0000
  Zn  Zn1       1.0  0.04411922734788254  0.5620534248663825  0.40169699393886704  1.0000
  Zn  Zn2       1.0  0.2555624588715868  0.5620494436936608  0.4016920923899623  1.0000
  C   C25       1.0  0.14975567219084285  0.5591048600154345  0.6648942335400749  1.0000
  C   C26       1.0  0.14992831198240442  0.5649998304226589  0.13849498382069658  1.0000
  C   C27       1.0  0.14826043649376588  0.8254981106023032  0.39445662788138747  1.0000
  C   C28       1.0  0.15142348590452737  0.29860484724416825  0.4089326761447232  1.0000
  O   O1        1.0  0.23013184410855647  0.5674927048046116  0.19216607682637  1.0000
  O   O2        1.0  0.23003266705781034  0.5566078711832798  0.6112190117729999  1.0000
  O   O3        1.0  0.2288241629319228  0.7717238060000149  0.3928387233185098  1.0000
  O   O4        1.0  0.23134027607134924  0.35237677916038357  0.410546257187252  1.0000
  O   O5        1.0  0.06834133799291653  0.7717260894025081  0.3928428291356618  1.0000
  O   O6        1.0  0.06954983173855434  0.5566118871802441  0.6112230309188971  1.0000
  O   O7        1.0  0.06964900995958434  0.5674966520880029  0.19216836389213654  1.0000
  O   O8        1.0  0.0708574419302683  0.35238071727411646  0.41054865234071153  1.0000
