data_image0
_chemical_formula_structural       NC12NC2H8C9H8C7ONH5Zn2C4O8
_chemical_formula_sum              "N3 C34 H21 O9 Zn2"
_cell_length_a       19.240039667572717
_cell_length_b       9.275152443626249
_cell_length_c       9.273042158839656
_cell_angle_alpha    85.96394158152518
_cell_angle_beta     90.09323012154856
_cell_angle_gamma    90.57354334366605

_space_group_name_H-M_alt    "P 1"
_space_group_IT_number       1

loop_
  _space_group_symop_operation_xyz
  'x, y, z'

loop_
  _atom_site_type_symbol
  _atom_site_label
  _atom_site_symmetry_multiplicity
  _atom_site_fract_x
  _atom_site_fract_y
  _atom_site_fract_z
  _atom_site_occupancy
  N   N1        1.0  0.6607635856597484  0.5619895971863755  0.404733980004818  1.0000
  C   C1        1.0  0.6006152172164383  0.5619896895139944  0.4047338887508283  1.0000
  C   C2        1.0  0.5257971805763537  0.5619898181888121  0.40473373592230755  1.0000
  C   C3        1.0  0.48907394827809886  0.4915909188475234  0.5197469049600056  1.0000
  C   C4        1.0  0.4164026863658678  0.4914687650126451  0.5198433720946001  1.0000
  C   C5        1.0  0.3794649459239129  0.5619899183490418  0.40473348288593325  1.0000
  C   C6        1.0  0.416902885051182  0.6325112816581617  0.2896238088713343  1.0000
  C   C7        1.0  0.4895730585545806  0.6323888676661018  0.2897204128534814  1.0000
  C   C8        1.0  0.3022598549744576  0.5619898298594335  0.4047333772909829  1.0000
  C   C9        1.0  0.26450408786904245  0.43667111646148865  0.4516321651651542  1.0000
  C   C10       1.0  0.1918338875371211  0.4367887923981182  0.4515304049111337  1.0000
  C   C11       1.0  0.15592756741570268  0.5619896870882626  0.4047334453805769  1.0000
  C   C12       1.0  0.08110952988184758  0.5619895636492118  0.4047337217800664  1.0000
  N   N2        1.0  0.020961213004196302  0.5619895207374279  0.40473395324212386  1.0000
  C   C13       1.0  0.1929687585081055  0.6871906653884317  0.3579364268631515  1.0000
  C   C14       1.0  0.2656399435924624  0.687308539500711  0.35783448547529595  1.0000
  H   H1        1.0  0.5165962593480552  0.43709447037261123  0.6095443170211612  1.0000
  H   H2        1.0  0.3891221339822691  0.43787184088959163  0.610875761361823  1.0000
  H   H3        1.0  0.389996906744455  0.6861082352366319  0.19859136306902322  1.0000
  H   H4        1.0  0.5174805186661666  0.6868852079925218  0.19992330725506302  1.0000
  H   H5        1.0  0.29114862304620714  0.3380031638693342  0.4865609361416532  1.0000
  H   H6        1.0  0.1636760799225504  0.33913169437353674  0.4876021650536069  1.0000
  H   H7        1.0  0.1656967425569217  0.7848477363279147  0.321864682962129  1.0000
  H   H8        1.0  0.29318188761518177  0.7859765795177267  0.32290566451006447  1.0000
  C   C15       1.0  0.8388166586419175  0.13837278019983712  0.4062054353893536  1.0000
  C   C16       1.0  0.8136415693726661  0.21982236984127781  0.283757305907516  1.0000
  C   C17       1.0  0.7949251860609603  0.15306706430032002  0.1590166407085096  1.0000
  C   C18       1.0  0.8010895822640449  0.0036749597276994933  0.15425427662180113  1.0000
  C   C19       1.0  0.8249046838684945  0.9205263228402621  0.27566756098143674  1.0000
  C   C20       1.0  0.8429147759226525  0.9855954296581845  0.4032749254478383  1.0000
  C   C21       1.0  0.7821511588410806  0.935164762804297  0.025077472590650848  1.0000
  C   C22       1.0  0.7662946463865729  0.8777700456856095  0.9169121527009917  1.0000
  C   C23       1.0  0.7470559007816314  0.8081197069029957  0.7856725070732238  1.0000
  H   H9        1.0  0.9389273245198575  0.22305630355851958  0.694056007022589  1.0000
  H   H10       1.0  0.8099799824296797  0.33633508065909323  0.2833039323080053  1.0000
  H   H11       1.0  0.7762644727271434  0.2183235464803741  0.06566874841049364  1.0000
  H   H12       1.0  0.8278276347364573  0.8041739394355972  0.2716467805565883  1.0000
  H   H13       1.0  0.9080908129824007  0.6923698684086264  0.6001550527059585  1.0000
  H   H14       1.0  0.7597730649874516  0.6915397117626741  0.7991376370567029  1.0000
  H   H15       1.0  0.6904700279032937  0.8204944345887296  0.7659408059297554  1.0000
  H   H16       1.0  0.7763295542458399  0.8594855061297692  0.6923772361517443  1.0000
  C   C24       1.0  0.8405117968656937  0.5575257781067707  0.9814907144327556  1.0000
  C   C25       1.0  0.7767192706008037  0.5667117966600297  0.05413976100813444  1.0000
  C   C26       1.0  0.7142493409488488  0.5898511639031276  0.9778035747446986  1.0000
  C   C27       1.0  0.715948836467071  0.6020621138500941  0.8262626373207976  1.0000
  C   C28       1.0  0.7785933026092287  0.5907581347793376  0.7526114861809532  1.0000
  C   C29       1.0  0.8412196530365338  0.5664423599363244  0.8279897112474843  1.0000
  C   C30       1.0  0.6478814897082874  0.5998097322900675  0.057629162607939266  1.0000
  O   O1        1.0  0.642968146721551  0.5439858706387413  0.18519287568413434  1.0000
  N   N3        1.0  0.5891155166830734  0.6729941494437477  0.9938395731818707  1.0000
  H   H17       1.0  0.009406612281225522  0.6126269519162195  0.08126014584727614  1.0000
  H   H18       1.0  0.6687537929877876  0.6163250769418207  0.7635901795399107  1.0000
  H   H19       1.0  0.9550277166417904  0.5968626184896615  0.5449626834197865  1.0000
  H   H20       1.0  0.5927640125995729  0.7352873699975025  0.8959582769124448  1.0000
  H   H21       1.0  0.5421379546925115  0.6728317875593648  0.05008260562549838  1.0000
  Zn  Zn1       1.0  0.7647088377060937  0.5619858113688512  0.4047422963809777  1.0000
  Zn  Zn2       1.0  0.9170159326464863  0.56198166343623  0.4047374404002037  1.0000
  C   C31       1.0  0.8410564865630894  0.5590101482164047  0.6680031293483726  1.0000
  C   C32       1.0  0.8406699559007718  0.5649591481788827  0.14147674254840847  1.0000
  C   C33       1.0  0.8421317598927345  0.8253917875339514  0.39808539302083695  1.0000
  C   C34       1.0  0.8395946222801611  0.2985757765197261  0.411394561714602  1.0000
  O   O2        1.0  0.8985227538506843  0.5674459875703466  0.19516769402336284  1.0000
  O   O3        1.0  0.898801243915697  0.5565190680138175  0.6143080811600895  1.0000
  O   O4        1.0  0.8996687628129917  0.7716256264259125  0.3963475941994845  1.0000
  O   O5        1.0  0.8976551829408461  0.35233943834071946  0.41312807288192577  1.0000
  O   O6        1.0  0.7840695354367985  0.7716280364672681  0.3963516638933262  1.0000
  O   O7        1.0  0.7832020248555348  0.556523210399688  0.6143120680093432  1.0000
  O   O8        1.0  0.782923533144579  0.5674500614335956  0.1951699481783724  1.0000
  O   O9        1.0  0.7820559622723492  0.352343503024406  0.41313043513304754  1.0000
