data_image0
_chemical_formula_structural       NC12NC2H8C7ONC2H11C6OCH8Zn2C4O8
_chemical_formula_sum              "N3 C34 H27 O10 Zn2"
_cell_length_a       17.80743265337812
_cell_length_b       10.300136040248377
_cell_length_c       10.300312196595936
_cell_angle_alpha    85.58092620760948
_cell_angle_beta     91.53959400843588
_cell_angle_gamma    89.44878503939185

_space_group_name_H-M_alt    "P 1"
_space_group_IT_number       1

loop_
  _space_group_symop_operation_xyz
  'x, y, z'

loop_
  _atom_site_type_symbol
  _atom_site_label
  _atom_site_symmetry_multiplicity
  _atom_site_fract_x
  _atom_site_fract_y
  _atom_site_fract_z
  _atom_site_occupancy
  N   N1        1.0  0.7075341828429516  0.40659182717234565  0.602041064780259  1.0000
  C   C1        1.0  0.6567142531104252  0.43614911514942883  0.5333605068764415  1.0000
  C   C2        1.0  0.5934892459779391  0.4729162358593306  0.4479305392208503  1.0000
  C   C3        1.0  0.6052156455642638  0.5269341681131829  0.3213441010128415  1.0000
  C   C4        1.0  0.5438979292108342  0.562197787403572  0.2383092822199966  1.0000
  C   C5        1.0  0.47069950615804684  0.5437069259552394  0.2812011654916975  1.0000
  C   C6        1.0  0.45799634585147225  0.4895701948132094  0.4082556572241933  1.0000
  C   C7        1.0  0.5201713777225391  0.45430982935060316  0.49127396707244736  1.0000
  C   C8        1.0  0.38022973793711645  0.4699652607374723  0.45400712615129457  1.0000
  C   C9        1.0  0.3614559274288919  0.49714832893557803  0.5810524684013434  1.0000
  C   C10       1.0  0.2882275668686293  0.47869903725525487  0.6239849288198562  1.0000
  C   C11       1.0  0.23283006677346962  0.43281241701820505  0.5407098384752456  1.0000
  C   C12       1.0  0.1574651157567168  0.413810328563595  0.5850428763679185  1.0000
  N   N2        1.0  0.09687703217341072  0.3985339274274689  0.6206835890043967  1.0000
  C   C13       1.0  0.2509123963028961  0.4054604441126324  0.4142073493293492  1.0000
  C   C14       1.0  0.3240878869250844  0.42392452248118523  0.37101902932841524  1.0000
  H   H1        1.0  0.6616811087877975  0.5417571216427838  0.28691622851260057  1.0000
  H   H2        1.0  0.5530954013335985  0.6042925401310788  0.14055611790159261  1.0000
  H   H3        1.0  0.424059944525904  0.5733407887396579  0.2156283286777223  1.0000
  H   H4        1.0  0.5116720909544608  0.41082987422456974  0.5889021107017445  1.0000
  H   H5        1.0  0.40314177324199874  0.5343241931736622  0.6466358633314604  1.0000
  H   H6        1.0  0.2747936928088617  0.5005420583458213  0.721994936848734  1.0000
  H   H7        1.0  0.20850987219434763  0.3695517621191456  0.34903741024923374  1.0000
  H   H8        1.0  0.3369931767718668  0.40054606787517  0.27331168281604934  1.0000
  C   C15       1.0  0.9021548803460369  0.021223086519287507  0.611216269450739  1.0000
  C   C16       1.0  0.8952098815087033  0.010024311889949894  0.7470764148655045  1.0000
  C   C17       1.0  0.8907022751736433  0.8873458222872849  0.8154256073327858  1.0000
  C   C18       1.0  0.8952668412534164  0.7747906572603916  0.7474733856596356  1.0000
  C   C19       1.0  0.9022635137822191  0.7838925107413303  0.6115199408417167  1.0000
  C   C20       1.0  0.9054060354622219  0.9075526170012032  0.5441405361604681  1.0000
  C   C21       1.0  0.884135795056082  0.8759142552716288  0.9586502499131266  1.0000
  O   O1        1.0  0.9235913359300556  0.7912174830430067  0.02493827722943853  1.0000
  N   N3        1.0  0.8336274752750333  0.958096925783327  0.023691491523614275  1.0000
  C   C22       1.0  0.8493243155778568  0.9811884862650283  0.16030326924900618  1.0000
  C   C23       1.0  0.7630097115495974  0.005353743150713792  0.959233425197868  1.0000
  H   H9        1.0  0.9054634522092774  0.35291869778657015  0.5593624638249048  1.0000
  H   H10       1.0  0.894612827222612  0.09665035323083518  0.800337659083358  1.0000
  H   H11       1.0  0.892585937849623  0.680120811060343  0.8007790712583661  1.0000
  H   H12       1.0  0.9107501079059391  0.9154248028874837  0.4393433677938097  1.0000
  H   H13       1.0  0.9159802738388297  0.5938024966790293  0.3551825924688534  1.0000
  H   H14       1.0  0.8080878682923264  0.05051299085085503  0.1964352672153441  1.0000
  H   H15       1.0  0.8470230234657025  0.8879512335276494  0.22175893824117632  1.0000
  H   H16       1.0  0.9061413854076451  0.02340600588253495  0.17037518463558066  1.0000
  H   H17       1.0  0.7229330658347612  0.03919267471176346  0.030531684663164468  1.0000
  H   H18       1.0  0.7737762561481493  0.08803087470418956  0.8870520508454008  1.0000
  H   H19       1.0  0.7357774625330239  0.9255980096591769  0.9093018673698618  1.0000
  C   C24       1.0  0.9021879828984452  0.40257246271478114  0.23002496460911037  1.0000
  C   C25       1.0  0.8286005013673313  0.45349846291360296  0.2216287184003305  1.0000
  C   C26       1.0  0.7915729471845994  0.47912336635202696  0.09982456811709663  1.0000
  C   C27       1.0  0.8286873252192175  0.4534384677105186  0.9864911803645335  1.0000
  C   C28       1.0  0.9022304328591354  0.4025431819734995  0.9927112349341898  1.0000
  C   C29       1.0  0.9385981089437142  0.37737489342228603  0.11500522817180948  1.0000
  O   O2        1.0  0.7181201281194876  0.5299563988617613  0.08714191317251063  1.0000
  C   C30       1.0  0.6734974351742232  0.5608377178925733  0.19346847374304343  1.0000
  H   H20       1.0  0.9302270204153514  0.38316911088263295  0.5606538063852609  1.0000
  H   H21       1.0  0.8003500239417795  0.47304910621935514  0.30980664682863845  1.0000
  H   H22       1.0  0.7995921603175901  0.4735738279546838  0.8933172732382685  1.0000
  H   H23       1.0  0.9953416256695417  0.33810575372194074  0.12067597425373267  1.0000
  H   H24       1.0  0.9300623972121713  0.38328259572270024  0.667656126039001  1.0000
  H   H25       1.0  0.6643623261646188  0.4720553279433617  0.25910039765207493  1.0000
  H   H26       1.0  0.618135223195445  0.5991509843936238  0.15525032919612158  1.0000
  H   H27       1.0  0.7013381376327694  0.6366751891675149  0.24813358012699727  1.0000
  Zn  Zn1       1.0  0.8198901221526483  0.4042630240640093  0.6074283796164488  1.0000
  Zn  Zn2       1.0  0.9845210894502469  0.40085213748073967  0.6153068622856681  1.0000
  C   C31       1.0  0.9022199860916397  0.39737546266432605  0.848545045602976  1.0000
  C   C32       1.0  0.9021930235167995  0.40774130012290866  0.3741904104420992  1.0000
  C   C33       1.0  0.9022388336319122  0.6397320661787581  0.6062875119276245  1.0000
  C   C34       1.0  0.902174119581085  0.16538313758656797  0.6164480100418608  1.0000
  O   O3        1.0  0.9646713084952693  0.4081759301848875  0.4255634918896205  1.0000
  O   O4        1.0  0.9646927958304123  0.394351068975034  0.803151175994925  1.0000
  O   O5        1.0  0.9647071733183056  0.5900571087279802  0.6075264637723181  1.0000
  O   O6        1.0  0.9646568748258846  0.212469900889096  0.62118810405945  1.0000
  O   O7        1.0  0.8397542805965414  0.5926452618210352  0.6015471351472972  1.0000
  O   O8        1.0  0.8397399033236205  0.39694078225537927  0.7971717787501241  1.0000
  O   O9        1.0  0.83971841594512  0.4107655982716521  0.41958253333408796  1.0000
  O   O10       1.0  0.8397039822767574  0.21505955968408785  0.6152072428613256  1.0000
