data_image0
_chemical_formula_structural       NC5NC3H4C6NH7C6NH7Zn2C4O8
_chemical_formula_sum              "N4 C24 H18 Zn2 O8"
_cell_length_a       13.859018345313864
_cell_length_b       9.274771166103582
_cell_length_c       9.274774538082514
_cell_angle_alpha    84.9550519661537
_cell_angle_beta     90.34966595504997
_cell_angle_gamma    90.59704768766964

_space_group_name_H-M_alt    "P 1"
_space_group_IT_number       1

loop_
  _space_group_symop_operation_xyz
  'x, y, z'

loop_
  _atom_site_type_symbol
  _atom_site_label
  _atom_site_symmetry_multiplicity
  _atom_site_fract_x
  _atom_site_fract_y
  _atom_site_fract_z
  _atom_site_occupancy
  N   N1        1.0  0.9131820255081584  0.5925436768841661  0.40513158874473976  1.0000
  C   C1        1.0  0.8407584491812451  0.5525442769340889  0.4565215644829439  1.0000
  C   C2        1.0  0.7506677782029494  0.5027903805780374  0.5204438585225031  1.0000
  C   C3        1.0  0.6631363496221852  0.551294599380707  0.45812744958387913  1.0000
  C   C4        1.0  0.5754374712030825  0.5027900911487511  0.5204437333481744  1.0000
  C   C5        1.0  0.4855185683790651  0.5525441650647331  0.456521467256414  1.0000
  N   N2        1.0  0.413233122436393  0.5925436435782006  0.4051315196949512  1.0000
  C   C6        1.0  0.5754524770385561  0.4057670167872636  0.6450950705534497  1.0000
  C   C7        1.0  0.6628016869862496  0.35744951203236486  0.7071716708890499  1.0000
  C   C8        1.0  0.7503178234687717  0.4057673102538933  0.6450952739221059  1.0000
  H   H1        1.0  0.6632659415090385  0.6263931047749449  0.36164396169089486  1.0000
  H   H2        1.0  0.5080910971916304  0.36758924029351947  0.6941439212546409  1.0000
  H   H3        1.0  0.6626722961793511  0.2825034685189092  0.8034594716525443  1.0000
  H   H4        1.0  0.8175473642644917  0.3675897666875161  0.6941443461163641  1.0000
  C   C9        1.0  0.16025303088141496  0.16894023958023796  0.4059182452810197  1.0000
  C   C10       1.0  0.13753026805431912  0.25337252158294676  0.2768532849885681  1.0000
  C   C11       1.0  0.12381302461277177  0.1894537934031968  0.1469694628622036  1.0000
  C   C12       1.0  0.13286534242316872  0.03973349965398752  0.145209840360641  1.0000
  C   C13       1.0  0.1537967233403803  0.9539972238068909  0.2725018255513971  1.0000
  C   C14       1.0  0.16617131932035223  0.01613586455642135  0.404357431904409  1.0000
  N   N3        1.0  0.10167737537831756  0.2769979215125489  0.01648600381453069  1.0000
  H   H5        1.0  0.27011455780291155  0.24585092222141383  0.7217799065485746  1.0000
  H   H6        1.0  0.1326629403973254  0.36997005648335124  0.276298888166451  1.0000
  H   H7        1.0  0.12276798581724478  0.9891162037894706  0.045277343215916144  1.0000
  H   H8        1.0  0.15803236290300576  0.8378691898939938  0.26836839550429614  1.0000
  H   H9        1.0  0.23626535474020716  0.7171988288272654  0.6192551982699479  1.0000
  H   H10       1.0  0.09502921134620476  0.38907223179277883  0.0164391274284803  1.0000
  H   H11       1.0  0.0916804080002056  0.23037717160169932  0.9189270223878636  1.0000
  C   C15       1.0  0.1615063036949831  0.5962274749176706  0.9813147115689654  1.0000
  C   C16       1.0  0.23047124392080987  0.6813528933166444  0.047894381996371305  1.0000
  C   C17       1.0  0.3036819658119736  0.754595734041778  0.9669945178500737  1.0000
  C   C18       1.0  0.30851886563378383  0.7430453390392957  0.818038382298589  1.0000
  C   C19       1.0  0.23988568983781763  0.6610976321841227  0.7497502947672445  1.0000
  C   C20       1.0  0.1649180229515774  0.5888485532102001  0.8289609323281054  1.0000
  N   N4        1.0  0.3737532050871015  0.8395204672679606  0.03657980305899899  1.0000
  H   H12       1.0  0.015308912904390182  0.31424153664633514  0.10775456116156693  1.0000
  H   H13       1.0  0.2287821865756796  0.6881943388492575  0.16390190704067667  1.0000
  H   H14       1.0  0.36503734203675275  0.798778255591056  0.754404925743092  1.0000
  H   H15       1.0  0.24416029383499338  0.657085112008321  0.6335846373783149  1.0000
  H   H16       1.0  0.06351625835423502  0.40331253552275165  0.5632209858521322  1.0000
  H   H17       1.0  0.3710144601098342  0.8485664157564765  0.14793306022625655  1.0000
  H   H18       1.0  0.4288710698304834  0.8941190181065289  0.9772371211954405  1.0000
  Zn  Zn1       1.0  0.057485975340248775  0.5925397226711404  0.40513991971615537  1.0000
  Zn  Zn2       1.0  0.26892911408441167  0.5925356558992776  0.40513506458440807  1.0000
  C   C21       1.0  0.1642308437895923  0.5844967246575887  0.6687482355696406  1.0000
  C   C22       1.0  0.1621865678723522  0.6005804727226003  0.14152688698072535  1.0000
  C   C23       1.0  0.16502450987838463  0.8560478928547712  0.39890115936974047  1.0000
  C   C24       1.0  0.16139281783556347  0.3290275707598227  0.41137404332159244  1.0000
  O   O1        1.0  0.24265639599031666  0.6020335420425036  0.1952937257023688  1.0000
  O   O2        1.0  0.2442414562430255  0.5830394841474454  0.6149772984574613  1.0000
  O   O3        1.0  0.24488127599252488  0.8023204736568555  0.3970738724746825  1.0000
  O   O4        1.0  0.24201650372612638  0.3827525637955653  0.4131970434533234  1.0000
  O   O5        1.0  0.08439851354334868  0.8023228147778765  0.3970779408413024  1.0000
  O   O6        1.0  0.08375870558665999  0.5830435590370857  0.6149812866771762  1.0000
  O   O7        1.0  0.08217363806281885  0.602037581769651  0.1952959787980264  1.0000
  O   O8        1.0  0.08153374615813379  0.3827565922632654  0.4131994047748677  1.0000
