data_image0
_chemical_formula_structural       NC8NH4C7NH5C6NCH6Zn2C4O8
_chemical_formula_sum              "N4 C26 H15 Zn2 O8"
_cell_length_a       13.859017124695912
_cell_length_b       9.275154477615127
_cell_length_c       9.273390368590327
_cell_angle_alpha    86.39388611738053
_cell_angle_beta     89.99082906418701
_cell_angle_gamma    89.43373790894346

_space_group_name_H-M_alt    "P 1"
_space_group_IT_number       1

loop_
  _space_group_symop_operation_xyz
  'x, y, z'

loop_
  _atom_site_type_symbol
  _atom_site_label
  _atom_site_symmetry_multiplicity
  _atom_site_fract_x
  _atom_site_fract_y
  _atom_site_fract_z
  _atom_site_occupancy
  N   N1        1.0  0.8984338335398464  0.5610660722712657  0.4163807915729254  1.0000
  C   C1        1.0  0.8262404584982729  0.5376151417294949  0.3601275821593637  1.0000
  C   C2        1.0  0.736436172460645  0.508445605230051  0.2901558209651207  1.0000
  C   C3        1.0  0.6486255853330056  0.5368829343640678  0.35836948740503094  1.0000
  C   C4        1.0  0.5612058445967267  0.5084468246438152  0.2901552465314525  1.0000
  C   C5        1.0  0.5617791532348523  0.45156566549873767  0.15370640453147955  1.0000
  C   C6        1.0  0.6494064290479463  0.4232376379427416  0.08575531011208537  1.0000
  C   C7        1.0  0.7366445274385324  0.45156332904899404  0.15370757355519427  1.0000
  C   C8        1.0  0.4710006137407138  0.5376160627990881  0.3601270878210403  1.0000
  N   N2        1.0  0.3984849570328852  0.5610663925192896  0.41638057684480323  1.0000
  H   H1        1.0  0.6483230282185307  0.5809111519411423  0.4639841634686275  1.0000
  H   H2        1.0  0.4946375157249041  0.42918438798140013  0.10001478973087341  1.0000
  H   H3        1.0  0.64970843449657  0.3792993356903905  0.9803545245819802  1.0000
  H   H4        1.0  0.8040937613900657  0.4291799618570345  0.10001694964420826  1.0000
  C   C9        1.0  0.15125646464413833  0.1376592356420272  0.41471279349017465  1.0000
  C   C10       1.0  0.12479380226208736  0.21948832539321733  0.28762971697991824  1.0000
  C   C11       1.0  0.09048163435232204  0.15217141016344016  0.16727842404693227  1.0000
  C   C12       1.0  0.08206706425216104  0.002107332963998457  0.17259281024767503  1.0000
  C   C13       1.0  0.10942452182683504  0.919039797177033  0.2967791286578687  1.0000
  C   C14       1.0  0.14567163286844198  0.9844623176674966  0.41806105949459105  1.0000
  C   C15       1.0  0.06273554371245127  0.23756604058710074  0.03866366544285982  1.0000
  N   N3        1.0  0.04043538360131449  0.3062077673739383  0.9352903438991126  1.0000
  H   H5        1.0  0.16990314099269144  0.21808861989029515  0.7685101487510553  1.0000
  H   H6        1.0  0.12873508473463713  0.3364022986132862  0.2833530708501415  1.0000
  H   H7        1.0  0.05518187591563617  0.9489981568025557  0.08009528316424586  1.0000
  H   H8        1.0  0.1043578348291263  0.8025708500879657  0.29665228456121295  1.0000
  H   H9        1.0  0.16232172457781924  0.688210261025508  0.6551153495746498  1.0000
  C   C16       1.0  0.14853842169313114  0.5565645355505271  0.9931233547254287  1.0000
  C   C17       1.0  0.23717765314114825  0.5536997542918025  0.06671448113274936  1.0000
  C   C18       1.0  0.3241827484566475  0.5642383249261766  0.9913413301539652  1.0000
  C   C19       1.0  0.3247583961248719  0.5780322874885684  0.839767881888231  1.0000
  C   C20       1.0  0.2367233196213232  0.5784654898102211  0.7653575389436824  1.0000
  C   C21       1.0  0.14838969347260433  0.5655570206642395  0.8396504450838735  1.0000
  N   N4        1.0  0.41338335932510106  0.5902309970063031  0.75902781131962  1.0000
  C   C22       1.0  0.5086497203055569  0.590400998912141  0.8260166466410959  1.0000
  H   H10       1.0  0.3906719228504747  0.5629116306743893  0.05245706471616617  1.0000
  H   H11       1.0  0.9242636041664227  0.45354123825038317  0.7437165380790676  1.0000
  H   H12       1.0  0.41018962626013145  0.5997866762013856  0.6461897617017249  1.0000
  H   H13       1.0  0.5143018062668427  0.6828931649657366  0.8958508880639963  1.0000
  H   H14       1.0  0.5210990822005099  0.48733608834459474  0.8911630680648858  1.0000
  H   H15       1.0  0.5651234765623834  0.6013011243751252  0.7411691578121484  1.0000
  Zn  Zn1       1.0  0.042737813015106145  0.5610624036193945  0.41638904234392604  1.0000
  Zn  Zn2       1.0  0.25418104541545916  0.5610584250571311  0.41638410136807846  1.0000
  C   C23       1.0  0.14845351644222027  0.5581132551356627  0.6796159945094575  1.0000
  C   C24       1.0  0.1484676389187285  0.5640093942442295  0.15315729781086485  1.0000
  C   C25       1.0  0.14672332353292505  0.8243374763758653  0.41168444896682255  1.0000
  C   C26       1.0  0.15019777108855406  0.2977834415275262  0.4210889133504927  1.0000
  O   O1        1.0  0.22868552980892298  0.5665001567137982  0.20686425109240902  1.0000
  O   O2        1.0  0.22871615372715226  0.555618380904903  0.625904871926529  1.0000
  O   O3        1.0  0.22731791911305188  0.7705978223621213  0.409548259193782  1.0000
  O   O4        1.0  0.23008369222273628  0.35152072442419824  0.423220755796027  1.0000
  O   O5        1.0  0.06683509405262233  0.7706001042551742  0.40955238791008797  1.0000
  O   O6        1.0  0.06823331725098547  0.5556223942773029  0.6259089306399523  1.0000
  O   O7        1.0  0.0682026940328111  0.5665041014332215  0.20686657668145703  1.0000
  O   O8        1.0  0.06960085649170411  0.3515246599788502  0.42322318940831494  1.0000
