data_image0
_chemical_formula_structural       NC9NC3NH7C7NC2NH7C6OCH7Zn2C4O8
_chemical_formula_sum              "N5 C32 H21 O9 Zn2"
_cell_length_a       16.053384444249904
_cell_length_b       9.273995741505848
_cell_length_c       9.273891588657152
_cell_angle_alpha    86.22271932508039
_cell_angle_beta     89.48625385378584
_cell_angle_gamma    89.75855226915094

_space_group_name_H-M_alt    "P 1"
_space_group_IT_number       1

loop_
  _space_group_symop_operation_xyz
  'x, y, z'

loop_
  _atom_site_type_symbol
  _atom_site_label
  _atom_site_symmetry_multiplicity
  _atom_site_fract_x
  _atom_site_fract_y
  _atom_site_fract_z
  _atom_site_occupancy
  N   N1        1.0  0.798662321994955  0.5443080671644458  0.4106253844948476  1.0000
  C   C1        1.0  0.7480387383305669  0.5204436090474054  0.32749518624879914  1.0000
  C   C2        1.0  0.685127362827135  0.4907919629815949  0.22422719961583204  1.0000
  C   C3        1.0  0.6991325207152812  0.4760603600545547  0.07909417659693374  1.0000
  C   C4        1.0  0.6225297430014657  0.44741128377650313  0.021028548351899934  1.0000
  C   C5        1.0  0.5650585745760071  0.44625788117932536  0.13386777283723506  1.0000
  C   C6        1.0  0.474287420978114  0.41970531613379747  0.12242937037713086  1.0000
  C   C7        1.0  0.4183347452520003  0.4680788237046134  0.22677357862530492  1.0000
  C   C8        1.0  0.3326739580418436  0.4428952170379507  0.2158183670118281  1.0000
  C   C9        1.0  0.275944121188251  0.4932300262764883  0.3227999396168213  1.0000
  N   N2        1.0  0.2303500082623069  0.5336920996973258  0.40879637215664166  1.0000
  C   C10       1.0  0.3022390376731536  0.36921390502916274  0.10053385572218311  1.0000
  C   C11       1.0  0.357183185724708  0.3209753453366009  0.9964249063784618  1.0000
  C   C12       1.0  0.4426383423821214  0.34597093653144895  0.006939497353360965  1.0000
  N   N3        1.0  0.6039987469188928  0.47289176072764033  0.2577450187068655  1.0000
  H   H1        1.0  0.7581075228737468  0.4851260838889151  0.021829722677773285  1.0000
  H   H2        1.0  0.6105407369623334  0.43109577940060784  0.9086968527366772  1.0000
  H   H3        1.0  0.4407096433203584  0.5271306861354037  0.3154856070339809  1.0000
  H   H4        1.0  0.2361297417672003  0.3491801667976415  0.09112519674924635  1.0000
  H   H5        1.0  0.3335294895929689  0.26374397199215344  0.9074578457988208  1.0000
  H   H6        1.0  0.4837879466420301  0.3058765343470923  0.9255447586112711  1.0000
  H   H7        1.0  0.5775190997493371  0.4764583951783883  0.3607042950853194  1.0000
  C   C13       1.0  0.012022300294621811  0.11556268483746512  0.40866842615507637  1.0000
  C   C14       1.0  0.027062301207247064  0.19725099763153353  0.27825107406581595  1.0000
  C   C15       1.0  0.04953860308380789  0.1304546421193451  0.1532086525750218  1.0000
  C   C16       1.0  0.057907253708380464  0.9798193744932459  0.15501059488238744  1.0000
  C   C17       1.0  0.0411219195824546  0.8968855944602667  0.28424127987862025  1.0000
  C   C18       1.0  0.016997879070624892  0.9624262922925035  0.41076568455198004  1.0000
  C   C19       1.0  0.08274841600278204  0.9110006086367683  0.020959594192977216  1.0000
  N   N4        1.0  0.08619950383338759  0.9840165932659035  0.8899680435134539  1.0000
  C   C20       1.0  0.11147320093106063  0.8846883016131789  0.7992066056593026  1.0000
  C   C21       1.0  0.12311526690592613  0.7541791027969507  0.8756773220146226  1.0000
  N   N5        1.0  0.10508612717914434  0.7708808286158821  0.015120192130219753  1.0000
  H   H8        1.0  0.9438114536264299  0.38371662164934345  0.616406414900293  1.0000
  H   H9        1.0  0.023452666766332175  0.314141628315485  0.27361742092026486  1.0000
  H   H10       1.0  0.06160641820318368  0.197472892037172  0.05524032914525879  1.0000
  H   H11       1.0  0.04393615943480445  0.7802723378113529  0.2862268830648229  1.0000
  H   H12       1.0  0.01732508913184927  0.6665537673843481  0.6504649774410762  1.0000
  H   H13       1.0  0.12105470341973491  0.906435714905827  0.6842452006635145  1.0000
  H   H14       1.0  0.10934510539296483  0.6909968070987847  0.09935753697273375  1.0000
  C   C22       1.0  0.015852248141650538  0.5351420678267089  0.9864264984267055  1.0000
  C   C23       1.0  0.08442545511017907  0.5943689235239717  0.05486200774638305  1.0000
  C   C24       1.0  0.1483370469089167  0.6644792713258598  0.9749607555921999  1.0000
  C   C25       1.0  0.14390458946586063  0.6757184960403886  0.823566760150769  1.0000
  C   C26       1.0  0.07707625871893486  0.6155755087526769  0.753779476063762  1.0000
  C   C27       1.0  0.013167910875377272  0.5428469097923501  0.8330076176335064  1.0000
  O   O1        1.0  0.21462499517069222  0.7219867067141679  0.050034414157507756  1.0000
  C   C28       1.0  0.28366452608438153  0.7961865526640023  0.9828553534644424  1.0000
  H   H15       1.0  0.8172013662928354  0.45145113274535076  0.09806386963735303  1.0000
  H   H16       1.0  0.192212013259625  0.7296003510182456  0.7585776831202473  1.0000
  H   H17       1.0  0.07644780673052853  0.6230236140394997  0.636719552151825  1.0000
  H   H18       1.0  0.880657225636274  0.48075402601801936  0.5579629573707781  1.0000
  H   H19       1.0  0.261878167600335  0.8943139718136335  0.9187961652948778  1.0000
  H   H20       1.0  0.31797579783741203  0.72376898989129  0.9121183011359745  1.0000
  H   H21       1.0  0.32650643380505606  0.8296041641775065  0.06760359561872932  1.0000
  Zn  Zn1       1.0  0.9232380120511341  0.5412407583750303  0.4101058780011542  1.0000
  Zn  Zn2       1.0  0.10577418837120892  0.536747768192716  0.4093276305675504  1.0000
  C   C29       1.0  0.013639713985129209  0.5356462354305929  0.6729714587984363  1.0000
  C   C30       1.0  0.015374489967355803  0.5423440627356745  0.1464621872556664  1.0000
  C   C31       1.0  0.016071313195695103  0.8022989143834904  0.4046252512618902  1.0000
  C   C32       1.0  0.012942818047803735  0.27568965359720893  0.4148084676170092  1.0000
  O   O2        1.0  0.08448564061799146  0.5430497609351985  0.19987626994636076  1.0000
  O   O3        1.0  0.0830692924863794  0.5315293700721562  0.6189662866783503  1.0000
  O   O4        1.0  0.0850319010349323  0.7468548172361662  0.40227483319314145  1.0000
  O   O5        1.0  0.08252297018550236  0.3277243246357171  0.416567615644182  1.0000
  O   O6        1.0  0.9464891679462354  0.7502642034667669  0.4028658931825224  1.0000
  O   O7        1.0  0.9445265698160633  0.5349404880230628  0.6195572741009341  1.0000
  O   O8        1.0  0.9459429232029214  0.546460812863942  0.20046552420792724  1.0000
  O   O9        1.0  0.943980252363763  0.33113536723466974  0.4171569779511357  1.0000
