data_image0
_chemical_formula_structural       NC8NH4C10H6C6F3H5Zn2C4O8
_chemical_formula_sum              "N2 C28 H15 F3 Zn2 O8"
_cell_length_a       11.048855714531884
_cell_length_b       9.275150299802176
_cell_length_c       9.272721663655245
_cell_angle_alpha    85.5566990303468
_cell_angle_beta     90.51618364395259
_cell_angle_gamma    89.4838956589931

_space_group_name_H-M_alt    "P 1"
_space_group_IT_number       1

loop_
  _space_group_symop_operation_xyz
  'x, y, z'

loop_
  _atom_site_type_symbol
  _atom_site_label
  _atom_site_symmetry_multiplicity
  _atom_site_fract_x
  _atom_site_fract_y
  _atom_site_fract_z
  _atom_site_occupancy
  N   N1        1.0  0.11571408075946613  0.5702268488651896  0.40054391245354015  1.0000
  C   C1        1.0  0.06100439722232754  0.5117797049161359  0.3158547164067895  1.0000
  C   C2        1.0  0.9927435657297896  0.43885433066082835  0.2101865027784826  1.0000
  C   C3        1.0  0.8650268125581544  0.43885414055235383  0.21018660561880065  1.0000
  C   C4        1.0  0.8020117669919999  0.36676415509664095  0.10572915401483374  1.0000
  C   C5        1.0  0.8651946851732666  0.29524440144270847  0.002097880436304544  1.0000
  C   C6        1.0  0.9916008986011777  0.29524429138786434  0.0020979037331820874  1.0000
  C   C7        1.0  0.05526930485119077  0.3667642534290829  0.10572912573033344  1.0000
  C   C8        1.0  0.7972609754752149  0.5117797798146242  0.31585470284448713  1.0000
  N   N2        1.0  0.7429479667904447  0.570226891717345  0.40054394101304247  1.0000
  H   H1        1.0  0.7039464575598656  0.36586141755373913  0.10442045346618611  1.0000
  H   H2        1.0  0.8161085802173451  0.239772013847708  0.9217196680210938  1.0000
  H   H3        1.0  0.04031062060729075  0.23977212332244105  0.9217196667913217  1.0000
  H   H4        1.0  0.15332847176471542  0.365861370003455  0.10442072896158971  1.0000
  C   C9        1.0  0.4325484025125289  0.14653464450507214  0.40295789889910205  1.0000
  C   C10       1.0  0.49537607930274186  0.22798455185783562  0.2938676736438681  1.0000
  C   C11       1.0  0.5477824493553327  0.16120223605193007  0.17923362499261142  1.0000
  C   C12       1.0  0.5378905685959725  0.011995971734575669  0.1722132628516546  1.0000
  C   C13       1.0  0.4777003415990677  0.9290986466253335  0.28065543679009464  1.0000
  C   C14       1.0  0.42612540113828073  0.9939079979196609  0.3981424866403436  1.0000
  C   C15       1.0  0.6106060680072217  0.2463805128911163  0.06764916271831267  1.0000
  C   C16       1.0  0.6632053509045379  0.3177198276452282  0.974229710476437  1.0000
  C   C17       1.0  0.7247966683592405  0.4012631294338374  0.8648396061245109  1.0000
  C   C18       1.0  0.7773858086482638  0.4725970608861003  0.7714380617349854  1.0000
  H   H5        1.0  0.37687969617199535  0.41012233416690713  0.6319341033335821  1.0000
  H   H6        1.0  0.5012079760997361  0.3444452121220902  0.29609525695005035  1.0000
  H   H7        1.0  0.5777946944396029  0.9593612019944754  0.0835105945019714  1.0000
  H   H8        1.0  0.473952143023146  0.8130642236483501  0.2744300675402793  1.0000
  H   H9        1.0  0.3500576507333628  0.8653282329392606  0.7407402958575087  1.0000
  H   H10       1.0  0.8235634612991687  0.5352343095421344  0.6894237912850301  1.0000
  C   C19       1.0  0.42615238122320975  0.5678811856478403  0.9771202634647418  1.0000
  C   C20       1.0  0.4785575409933428  0.44986752403598457  0.060513246333960824  1.0000
  C   C21       1.0  0.5415055939643645  0.340436014415451  0.9952301160497372  1.0000
  C   C22       1.0  0.5483549779483792  0.34708000903503566  0.8440425412868358  1.0000
  C   C23       1.0  0.49525529721700307  0.462089712224747  0.7596983271787514  1.0000
  C   C24       1.0  0.43252148810715807  0.5725615057919728  0.8239800946104183  1.0000
  F   F1        1.0  0.6347108136455083  0.2548138688945649  0.21829699402343317  1.0000
  F   F2        1.0  0.6911965995425824  0.15320157076245344  0.01752156857343579  1.0000
  F   F3        1.0  0.5062007248324742  0.10902658185886362  0.10992822065302964  1.0000
  H   H11       1.0  0.34683004212896584  0.9114553682546103  0.051387204530688235  1.0000
  H   H12       1.0  0.47255312759636486  0.44474165242261576  0.17738800869012916  1.0000
  H   H13       1.0  0.5937318284779021  0.26232426545312193  0.7906163291763941  1.0000
  H   H14       1.0  0.5004380664209037  0.46255116520684614  0.6430410876056594  1.0000
  H   H15       1.0  0.2134835825488275  0.8159139981396497  0.7013063252810978  1.0000
  Zn  Zn1       1.0  0.29672033757781424  0.5702230365487553  0.4005522664781047  1.0000
  Zn  Zn2       1.0  0.5619419155498843  0.5702189353271956  0.40054745488669563  1.0000
  C   C25       1.0  0.4313584336452328  0.5659289673139656  0.6639381344078916  1.0000
  C   C26       1.0  0.4273067029593458  0.5745148257686388  0.13716171808375077  1.0000
  C   C27       1.0  0.4272900717254427  0.8337046626767808  0.3933067587121901  1.0000
  C   C28       1.0  0.4313749880950859  0.30673739737122196  0.40779318050686064  1.0000
  O   O1        1.0  0.5283443582168336  0.5767332850895  0.1908713020469457  1.0000
  O   O2        1.0  0.5316178243875347  0.563706304517317  0.6102244896661928  1.0000
  O   O3        1.0  0.5283312251489822  0.7799385733158244  0.3916877305292905  1.0000
  O   O4        1.0  0.5316308660618876  0.36050102601610967  0.40940795301275945  1.0000
  O   O5        1.0  0.3270312965586338  0.7799409458627695  0.39169176834608943  1.0000
  O   O6        1.0  0.3303178820740593  0.5637104101017929  0.6102284407496321  1.0000
  O   O7        1.0  0.32704440332681384  0.576737330814582  0.1908735198092142  1.0000
  O   O8        1.0  0.3303309120581897  0.3605050620190029  0.40941027894016524  1.0000
