data_image0
_chemical_formula_structural       NC8NH4C10H6C6IH3Zn2C4O8
_chemical_formula_sum              "N2 C28 H13 I1 Zn2 O8"
_cell_length_a       11.048855714531884
_cell_length_b       9.275150299802176
_cell_length_c       9.27543390334687
_cell_angle_alpha    85.8435202653109
_cell_angle_beta     89.9656283209417
_cell_angle_gamma    89.4838956589931

_space_group_name_H-M_alt    "P 1"
_space_group_IT_number       1

loop_
  _space_group_symop_operation_xyz
  'x, y, z'

loop_
  _atom_site_type_symbol
  _atom_site_label
  _atom_site_symmetry_multiplicity
  _atom_site_fract_x
  _atom_site_fract_y
  _atom_site_fract_z
  _atom_site_occupancy
  N   N1        1.0  0.12867389748022115  0.5620564803295134  0.40168910712302225  1.0000
  C   C1        1.0  0.07465042000246735  0.503176725602283  0.31706054769932807  1.0000
  C   C2        1.0  0.0072457799943315155  0.42971157519771325  0.2114679914622577  1.0000
  C   C3        1.0  0.8795290259894183  0.42971138561456945  0.21146809422894333  1.0000
  C   C4        1.0  0.8173603615389728  0.35708780884456726  0.10708543312263119  1.0000
  C   C5        1.0  0.8813829666129104  0.2850386841728556  0.003528358506497798  1.0000
  C   C6        1.0  0.00778917985205552  0.28503857423701695  0.0035283817866951267  1.0000
  C   C7        1.0  0.0706178996273421  0.3570879070325259  0.10708540485838225  1.0000
  C   C8        1.0  0.810906998365245  0.5031768004314923  0.3170605341467363  1.0000
  N   N2        1.0  0.7559077832797925  0.5620565233275565  0.40168913566207715  1.0000
  H   H1        1.0  0.7193056560361267  0.3561783861754724  0.10577766959057566  1.0000
  H   H2        1.0  0.8329481373683724  0.229155707238901  0.923207696092889  1.0000
  H   H3        1.0  0.057150177768282365  0.22915581670735222  0.9232076948639971  1.0000
  H   H4        1.0  0.1686876680087368  0.3561783400324785  0.10577794488872708  1.0000
  C   C9        1.0  0.4454886595703805  0.13837660713562983  0.4041013651782704  1.0000
  C   C10       1.0  0.5092002551729585  0.21926925796168129  0.29508924744060283  1.0000
  C   C11       1.0  0.5625354636425874  0.1519013665769837  0.18053727562939154  1.0000
  C   C12       1.0  0.5527004663496558  0.0026592407274546046  0.1735219399979866  1.0000
  C   C13       1.0  0.4916315714668461  0.9203158617582694  0.28188647041716486  1.0000
  C   C14       1.0  0.439104675747658  0.9857253623801836  0.39928940070685215  1.0000
  C   C15       1.0  0.6262632110112436  0.23650964578589107  0.06903270672158658  1.0000
  C   C16       1.0  0.6796194380901691  0.30737175372003467  0.9756801418794758  1.0000
  C   C17       1.0  0.742097104169572  0.39035626713447735  0.8663683597555698  1.0000
  C   C18       1.0  0.7954430435393256  0.4612130832439643  0.7730336899439649  1.0000
  H   H5        1.0  0.3879646414985721  0.4031339569029826  0.6329136249250542  1.0000
  H   H6        1.0  0.5150141026645645  0.33574129720451307  0.29731523581926655  1.0000
  H   H7        1.0  0.5933233179735087  0.9495713585223371  0.08488278187765785  1.0000
  H   H8        1.0  0.4879338148162291  0.8042496382451927  0.2756655584698888  1.0000
  H   H9        1.0  0.36026097866251733  0.8588956613012648  0.7416419132960284  1.0000
  H   H10       1.0  0.8422852282907325  0.523431385221826  0.6910781408969111  1.0000
  C   C19       1.0  0.4425430472988512  0.5575478772941245  0.9785686252605551  1.0000
  C   C20       1.0  0.5540521525989819  0.5548468613689046  0.05203883049562207  1.0000
  C   C21       1.0  0.6630052125585437  0.5654408617207582  0.9758599286479153  1.0000
  C   C22       1.0  0.6621931333319062  0.5790727147042112  0.8252368717103744  1.0000
  C   C23       1.0  0.5527511084205461  0.5795929228939125  0.7502585295413424  1.0000
  C   C24       1.0  0.4420503132629124  0.5665540741459284  0.8248221038203907  1.0000
  I   I1        1.0  0.828801504728935  0.5635255810231474  0.08865520031775165  1.0000
  H   H11       1.0  0.15338906394855845  0.6430224852702615  0.07557283506565707  1.0000
  H   H12       1.0  0.7465380690963244  0.5878922583951194  0.765975855935773  1.0000
  H   H13       1.0  0.24681634522644919  0.6180336904669574  0.5400542303275195  1.0000
  Zn  Zn1       1.0  0.30968008660891666  0.5620527106872477  0.40169745516618865  1.0000
  Zn  Zn2       1.0  0.5749017035675792  0.5620485848870358  0.401692647019831  1.0000
  C   C25       1.0  0.4421840618325155  0.5591040735808117  0.6648947414310469  1.0000
  C   C26       1.0  0.4424006107583869  0.5649990438699501  0.13849549178792997  1.0000
  C   C27       1.0  0.4403085284968989  0.8254973251904236  0.39445713511185665  1.0000
  C   C28       1.0  0.44427606660723234  0.29860405966875847  0.4089331847724321  1.0000
  O   O1        1.0  0.5430030765975897  0.5674918633925656  0.19216662022256514  1.0000
  O   O2        1.0  0.5428786748961282  0.5566070298390711  0.6112195551253847  1.0000
  O   O3        1.0  0.5413628003227999  0.7717229654824245  0.3928392661370521  1.0000
  O   O4        1.0  0.5445188606538907  0.3523759369217682  0.4105468011172581  1.0000
  O   O5        1.0  0.34006283901547607  0.7717253586554136  0.3928433010628143  1.0000
  O   O6        1.0  0.3415787005684461  0.5566111556065376  0.6112235033798878  1.0000
  O   O7        1.0  0.3417031037378413  0.5674959204464585  0.1921688363969376  1.0000
  O   O8        1.0  0.34321888780404075  0.35237998480600297  0.4105491253793233  1.0000
