data_image0
_chemical_formula_structural       NC12NC2H8C12NCOCH13C12BrH9Zn2C4O8
_chemical_formula_sum              "N3 C44 H30 O9 Br1 Zn2"
_cell_length_a       19.240039667572717
_cell_length_b       10.299155265289647
_cell_length_c       10.299148005577397
_cell_angle_alpha    85.53595772847069
_cell_angle_beta     89.97327996829169
_cell_angle_gamma    89.9765233896273

_space_group_name_H-M_alt    "P 1"
_space_group_IT_number       1

loop_
  _space_group_symop_operation_xyz
  'x, y, z'

loop_
  _atom_site_type_symbol
  _atom_site_label
  _atom_site_symmetry_multiplicity
  _atom_site_fract_x
  _atom_site_fract_y
  _atom_site_fract_z
  _atom_site_occupancy
  N   N1        1.0  0.6545230428448494  0.42158820033753014  0.5670120944694144  1.0000
  C   C1        1.0  0.5943746740296052  0.4215882843369567  0.5670120125067022  1.0000
  C   C2        1.0  0.5195566368969959  0.4215884016513715  0.5670118751648852  1.0000
  C   C3        1.0  0.48307124648669486  0.3571032238313152  0.6704456547617736  1.0000
  C   C4        1.0  0.4104005010990399  0.35699232170116024  0.6705322298618552  1.0000
  C   C5        1.0  0.37322440199619866  0.42158849425665323  0.5670116474479697  1.0000
  C   C6        1.0  0.410423981191008  0.48618485378394505  0.46349125953640036  1.0000
  C   C7        1.0  0.4830946723881397  0.48607371611895767  0.46357795720371087  1.0000
  C   C8        1.0  0.2960193115976377  0.4215884156035934  0.567011552047832  1.0000
  C   C9        1.0  0.2588458877142805  0.3083131062854243  0.6089133063117114  1.0000
  C   C10       1.0  0.18617519868432555  0.30842002779883515  0.6088219490035429  1.0000
  C   C11       1.0  0.14968702468756248  0.42158828641222285  0.5670116129941554  1.0000
  C   C12       1.0  0.0748689874954835  0.42158817262452053  0.5670118616964295  1.0000
  N   N2        1.0  0.014720670600312296  0.42158813176742255  0.5670120701366148  1.0000
  C   C13       1.0  0.1861463615439866  0.5347566208665944  0.5252012240720028  1.0000
  C   C14       1.0  0.2588170571171339  0.5348637225381215  0.5251097041151346  1.0000
  H   H1        1.0  0.510776903145759  0.30717729729928345  0.7512037036503849  1.0000
  H   H2        1.0  0.3832975315778833  0.3078643758365984  0.7524056375010322  1.0000
  H   H3        1.0  0.3833404199307964  0.5353128267103948  0.381617801039346  1.0000
  H   H4        1.0  0.5108187871453017  0.5359995423406219  0.3828201841499017  1.0000
  H   H5        1.0  0.28595093322023724  0.21914653851561217  0.6401052390114479  1.0000
  H   H6        1.0  0.1584716720120178  0.2201525552647368  0.6410466704668093  1.0000
  H   H7        1.0  0.1584200647702531  0.6230240688598832  0.492976517166162  1.0000
  H   H8        1.0  0.2858984904222002  0.6240303694969866  0.49391772662141337  1.0000
  C   C15       1.0  0.8347027920690517  0.04019067317737869  0.5671307764420356  1.0000
  C   C16       1.0  0.8228638204466673  0.049921882224256205  0.43219944047079295  1.0000
  C   C17       1.0  0.8167939289516771  0.9377181541636826  0.36366868145009196  1.0000
  C   C18       1.0  0.8226977134968138  0.8146621836542028  0.43189164165130356  1.0000
  C   C19       1.0  0.8345476178723356  0.8029757219771523  0.5669045719063665  1.0000
  C   C20       1.0  0.840480296835691  0.9162573957580307  0.6336929432676573  1.0000
  C   C21       1.0  0.8042705844900706  0.9489862676270905  0.22092762086422013  1.0000
  C   C22       1.0  0.8395385815573644  0.04311594496407034  0.13950630630397295  1.0000
  C   C23       1.0  0.8277590082164773  0.05358910486838031  0.005177456740248057  1.0000
  C   C24       1.0  0.7809081054551342  0.9692596409474397  0.949424361691181  1.0000
  C   C25       1.0  0.7447911566373384  0.8769462650038573  0.03077751383098093  1.0000
  C   C26       1.0  0.7565960531425014  0.8662170942839476  0.16506902622279826  1.0000
  N   N3        1.0  0.7668926798269938  0.9795323543969456  0.8118570367048953  1.0000
  C   C27       1.0  0.8176656552532633  0.016491503537439552  0.7136348226455684  1.0000
  O   O1        1.0  0.8814194728563012  0.01901938707501926  0.7414944981038496  1.0000
  C   C28       1.0  0.7955274150732878  0.04297018636032335  0.5750886216965716  1.0000
  H   H9        1.0  0.839278141852827  0.3639238221264631  0.6190254453156729  1.0000
  H   H10       1.0  0.8173777950912106  0.1449789181558172  0.38038744177770445  1.0000
  H   H11       1.0  0.8189720383221331  0.7278752295176552  0.37926079425850756  1.0000
  H   H12       1.0  0.8496142829156279  0.908036645860506  0.7377678569677117  1.0000
  H   H13       1.0  0.8573299027322201  0.5736348498399366  0.8216035909593631  1.0000
  H   H14       1.0  0.8766417658592948  0.10815506691483323  0.17960044732997058  1.0000
  H   H15       1.0  0.8544371327949052  0.12905846525805353  0.9455943022056962  1.0000
  H   H16       1.0  0.7076214876917611  0.812611393149007  0.9898162973599676  1.0000
  H   H17       1.0  0.7276844171615992  0.7943638904142017  0.22548516652125292  1.0000
  H   H18       1.0  0.7179476680694491  0.9506709427306704  0.7807821851430424  1.0000
  H   H19       1.0  0.7453580313869028  0.09641688807497384  0.5706347871439954  1.0000
  H   H20       1.0  0.7891072300934207  0.9493709745265564  0.5298624928261364  1.0000
  H   H21       1.0  0.8351074248956951  0.10307421687260909  0.5196908009870799  1.0000
  C   C29       1.0  0.8347199165558777  0.42163522465730224  0.18562947220535375  1.0000
  C   C30       1.0  0.7693324844628648  0.482419655520818  0.18017442266981473  1.0000
  C   C31       1.0  0.7360818066526371  0.5131853919806793  0.06027034588927926  1.0000
  C   C32       1.0  0.7691005343464048  0.4823468450279438  0.944897409384498  1.0000
  C   C33       1.0  0.8345304576499052  0.42153114498100347  0.9484058565194455  1.0000
  C   C34       1.0  0.8669371221479795  0.3915478420604901  0.06919552814129526  1.0000
  C   C35       1.0  0.6669102913721837  0.5774899160787288  0.05554447749472935  1.0000
  C   C36       1.0  0.6522904500545357  0.6788153577583353  0.13559244367971424  1.0000
  C   C37       1.0  0.587154843495078  0.739228903389322  0.13094966592733304  1.0000
  C   C38       1.0  0.5358986614415348  0.6992821754989793  0.0465968725617032  1.0000
  C   C39       1.0  0.5498202755101858  0.5987436590825561  0.9666962077773283  1.0000
  C   C40       1.0  0.6148968376005466  0.5381081312076641  0.9709465129049697  1.0000
  Br  Br1       1.0  0.4469643012631167  0.7819591091353323  0.04052213005720405  1.0000
  H   H22       1.0  0.8598849224012488  0.39830760227302386  0.5151991919479026  1.0000
  H   H23       1.0  0.7436812893902978  0.5043675597981641  0.26950742880673384  1.0000
  H   H24       1.0  0.7441348588309505  0.5074437086813517  0.8520734959116245  1.0000
  H   H25       1.0  0.9173730857807652  0.3446672321951674  0.07268710099850018  1.0000
  H   H26       1.0  0.9582199236998203  0.3074799944943776  0.7476787514835745  1.0000
  H   H27       1.0  0.6915002020392218  0.712435009349937  0.20049004763716094  1.0000
  H   H28       1.0  0.5766433215348854  0.8173011519432198  0.1927310184734767  1.0000
  H   H29       1.0  0.5101989380047709  0.567276156781289  0.9014909646461864  1.0000
  H   H30       1.0  0.6242455068429832  0.45934653932972536  0.9093664589980136  1.0000
  Zn  Zn1       1.0  0.7584683055351074  0.4215847120657195  0.5670195772804177  1.0000
  Zn  Zn2       1.0  0.9107754262041365  0.4215810243186451  0.567015189903201  1.0000
  C   C41       1.0  0.8345657803522942  0.4163767447938295  0.804226349556382  1.0000
  C   C42       1.0  0.8346796142108895  0.42679063027527014  0.32980854456629016  1.0000
  C   C43       1.0  0.8345746377834498  0.6587937892644751  0.5617719086223956  1.0000
  C   C44       1.0  0.8346707051082483  0.18437202537690744  0.5722630552066184  1.0000
  O   O2        1.0  0.8924658480672618  0.4285137658490025  0.3781946950361119  1.0000
  O   O3        1.0  0.8923771272290415  0.4146498305604802  0.7558364955943591  1.0000
  O   O4        1.0  0.892383500212921  0.61040465958707  0.5600528187567645  1.0000
  O   O5        1.0  0.8924594231335742  0.2327589461278785  0.5739782744928547  1.0000
  O   O6        1.0  0.7767842566307259  0.6104067902591594  0.5600564926854293  1.0000
  O   O7        1.0  0.776777883343388  0.4146535216629603  0.7558400998113484  1.0000
  O   O8        1.0  0.776866604624859  0.4285174119052032  0.3781967377868367  1.0000
  O   O9        1.0  0.7768601796660354  0.23276258288128673  0.5739804146190969  1.0000
