data_image0
_chemical_formula_structural       NC8NH4C7NH5C6NCOH5Zn2C4O8
_chemical_formula_sum              "N4 C26 H14 O9 Zn2"
_cell_length_a       13.859017124695912
_cell_length_b       9.275154477615127
_cell_length_c       9.27373355559583
_cell_angle_alpha    86.40037001266045
_cell_angle_beta     90.01104731116409
_cell_angle_gamma    89.43373790894346

_space_group_name_H-M_alt    "P 1"
_space_group_IT_number       1

loop_
  _space_group_symop_operation_xyz
  'x, y, z'

loop_
  _atom_site_type_symbol
  _atom_site_label
  _atom_site_symmetry_multiplicity
  _atom_site_fract_x
  _atom_site_fract_y
  _atom_site_fract_z
  _atom_site_occupancy
  N   N1        1.0  0.8980610666704975  0.5608920685042396  0.4164503225809777  1.0000
  C   C1        1.0  0.8258544502305799  0.5374349570129744  0.3601995830429616  1.0000
  C   C2        1.0  0.7360336935955858  0.5082577322069171  0.2902308940563969  1.0000
  C   C3        1.0  0.6482391632287829  0.536702556472882  0.3584415654802289  1.0000
  C   C4        1.0  0.5608033655964524  0.5082589515575637  0.29023031964794965  1.0000
  C   C5        1.0  0.5613445556498903  0.45136279978522614  0.15378746862452064  1.0000
  C   C6        1.0  0.6489558365087676  0.42302730594798055  0.08583935769261397  1.0000
  C   C7        1.0  0.7362099301287459  0.4513604634639312  0.15378863759690775  1.0000
  C   C8        1.0  0.47061460535665894  0.5374358780282507  0.3601990887263431  1.0000
  N   N2        1.0  0.3981121901129916  0.5608923887286694  0.41645010786228354  1.0000
  H   H1        1.0  0.6479614666691333  0.5807423787030135  0.4640516043843037  1.0000
  H   H2        1.0  0.49419027971332213  0.42897562277943635  0.10009821122907936  1.0000
  H   H3        1.0  0.649233031750089  0.37907742254428145  0.980443199930869  1.0000
  H   H4        1.0  0.8036465258869041  0.42897119689239593  0.10010037104758052  1.0000
  C   C9        1.0  0.1508833051460432  0.13748504859991306  0.41478239773400727  1.0000
  C   C10       1.0  0.12439072877941526  0.21930017480865494  0.2877049009833099  1.0000
  C   C11       1.0  0.09005023147426838  0.15197003570648152  0.16735889224154454  1.0000
  C   C12       1.0  0.08163691232325987  0.001906542437326348  0.17267304510675574  1.0000
  C   C13       1.0  0.10902360201692018  0.9188526519049154  0.29685391094359126  1.0000
  C   C14       1.0  0.14529926151602646  0.9842884985237347  0.41813051672813906  1.0000
  C   C15       1.0  0.06227386630838704  0.23735053429063593  0.03874978064766798  1.0000
  N   N3        1.0  0.039949373233087115  0.30598090269834843  0.9353809978536485  1.0000
  H   H5        1.0  0.16961326157342027  0.21795330713832042  0.7685642190290034  1.0000
  H   H6        1.0  0.1283310045756243  0.3362136781224905  0.28342844262564126  1.0000
  H   H7        1.0  0.054729951067203686  0.9487872028994436  0.08017957925614505  1.0000
  H   H8        1.0  0.10395688516148027  0.8023836908785646  0.2967270724162019  1.0000
  H   H9        1.0  0.16200515324671436  0.6880624887617309  0.6551743986092666  1.0000
  C   C16       1.0  0.14806602459144894  0.5563440254087095  0.9932114694410377  1.0000
  C   C17       1.0  0.059437424229031866  0.5480683258982311  0.06713025080516077  1.0000
  C   C18       1.0  0.9716092655123502  0.5514772939941044  0.9921942829274246  1.0000
  C   C19       1.0  0.9723530819860845  0.5678487321119887  0.8409112766798841  1.0000
  C   C20       1.0  0.05954501414688851  0.5739729088819681  0.7657799967807208  1.0000
  C   C21       1.0  0.1481165334243726  0.5654294780697225  0.8397014237422713  1.0000
  N   N4        1.0  0.88267346651366  0.5464201997628602  0.07218881338660843  1.0000
  C   C22       1.0  0.7961806133667124  0.48002457042814967  0.025143915876068453  1.0000
  O   O1        1.0  0.7961763966749884  0.4037211272663155  0.9174913979528377  1.0000
  H   H10       1.0  0.3747802529238129  0.6564616193429105  0.08992065841064023  1.0000
  H   H11       1.0  0.9056517786937975  0.5774485624985104  0.7803346489162482  1.0000
  H   H12       1.0  0.30161342835632743  0.6267662276526458  0.5548376286292256  1.0000
  H   H13       1.0  0.8820751028475718  0.584757490027644  0.17575938875417774  1.0000
  H   H14       1.0  0.7301514413157  0.49211659365080657  0.08561259472183047  1.0000
  Zn  Zn1       1.0  0.042365048087899426  0.5608884007589402  0.41645857298971656  1.0000
  Zn  Zn2       1.0  0.2538082793252008  0.560884421653776  0.41645363223080967  1.0000
  C   C23       1.0  0.14814271229849302  0.5579681749360454  0.6796739678091177  1.0000
  C   C24       1.0  0.14803291207997105  0.5638064681963664  0.15323838601320117  1.0000
  C   C25       1.0  0.14634945119521484  0.8241629565875002  0.41175418617434145  1.0000
  C   C26       1.0  0.1498261124602558  0.2976099550761025  0.42115823764189786  1.0000
  O   O2        1.0  0.22826344500729828  0.5663031318397378  0.20694298121612364  1.0000
  O   O3        1.0  0.22839270656488342  0.555467399073371  0.6259652034878704  1.0000
  O   O4        1.0  0.22694354393932614  0.7704230678550389  0.40961809019368967  1.0000
  O   O5        1.0  0.22971253540714032  0.3513474722138182  0.4232899864859192  1.0000
  O   O6        1.0  0.06646071985075164  0.7704253502017446  0.40962221872871796  1.0000
  O   O7        1.0  0.06790987104409418  0.5554714128917311  0.6259692620230903  1.0000
  O   O8        1.0  0.0677806097786049  0.5663070768146905  0.20694530670306355  1.0000
  O   O9        1.0  0.06922970024895413  0.3513514080358686  0.4232924199913559  1.0000
