data_image0
_chemical_formula_structural       NC5N2C2NH4C6ClH5C6SCH6Zn2C4O8
_chemical_formula_sum              "N4 C24 H15 Cl1 S1 Zn2 O8"
_cell_length_a       13.87973921873968
_cell_length_b       9.276545438789551
_cell_length_c       9.275274088470226
_cell_angle_alpha    86.1334652357246
_cell_angle_beta     89.72578350354677
_cell_angle_gamma    89.40960813042831

_space_group_name_H-M_alt    "P 1"
_space_group_IT_number       1

loop_
  _space_group_symop_operation_xyz
  'x, y, z'

loop_
  _atom_site_type_symbol
  _atom_site_label
  _atom_site_symmetry_multiplicity
  _atom_site_fract_x
  _atom_site_fract_y
  _atom_site_fract_z
  _atom_site_occupancy
  N   N1        1.0  0.9015509623778798  0.5629749207435306  0.41129217732201134  1.0000
  C   C1        1.0  0.8284576196747282  0.5869699318464583  0.3546823846366054  1.0000
  C   C2        1.0  0.7376783645554014  0.6167740760988019  0.2843669045342159  1.0000
  C   C3        1.0  0.6512112551361672  0.5867765511661085  0.3575287309597226  1.0000
  C   C4        1.0  0.5647989637174953  0.6167740118577498  0.2843669443892438  1.0000
  C   C5        1.0  0.4739804992714652  0.5869697861854317  0.35468228135099944  1.0000
  N   N2        1.0  0.4008555314361443  0.5629748960192678  0.41129216631695464  1.0000
  N   N3        1.0  0.5664860679630995  0.6740902439084284  0.145680030327628  1.0000
  C   C6        1.0  0.6513022086414155  0.7040519496168736  0.07656042927484297  1.0000
  C   C7        1.0  0.6513871547174498  0.7631011208375507  0.9228852777377977  1.0000
  N   N4        1.0  0.7360889669109201  0.674090197353068  0.1456800410485004  1.0000
  H   H1        1.0  0.6511731766096172  0.5409131483841199  0.4682033311141561  1.0000
  H   H2        1.0  0.7159946625187991  0.8307513332978514  0.9005347407489223  1.0000
  H   H3        1.0  0.6522431655943112  0.6724849395349088  0.8506300747490658  1.0000
  H   H4        1.0  0.585989858908776  0.830749262578416  0.9005339737153468  1.0000
  C   C8        1.0  0.15411637407702128  0.13953750008228472  0.4110546136717561  1.0000
  C   C9        1.0  0.15490593360241456  0.2219260845535065  0.27803846655119857  1.0000
  C   C10       1.0  0.14692090101397937  0.15561129668258866  0.1479174394278191  1.0000
  C   C11       1.0  0.13795377723301216  0.006028635520932914  0.14881067935067385  1.0000
  C   C12       1.0  0.13865844715727912  0.9220784553501499  0.27938531343509987  1.0000
  C   C13       1.0  0.14829938899825557  0.9864013576262193  0.4115422131087723  1.0000
  Cl  Cl1       1.0  0.14669993510109797  0.26067065987028926  0.9833914481217932  1.0000
  H   H5        1.0  0.2026674139777298  0.40464765999538527  0.6376287648703195  1.0000
  H   H6        1.0  0.15942950319332905  0.33861956042624297  0.27518521904811655  1.0000
  H   H7        1.0  0.13135472996690734  0.9543512601206066  0.04814128303685062  1.0000
  H   H8        1.0  0.13395671223841155  0.8057928304935833  0.2767353062589928  1.0000
  H   H9        1.0  0.11525791573700347  0.6898782733223412  0.6445767795206379  1.0000
  C   C14       1.0  0.1525884141495144  0.5589514155013102  0.9880991795873011  1.0000
  C   C15       1.0  0.23428623932215742  0.6097066423176924  0.05747674652005231  1.0000
  C   C16       1.0  0.31055401542687944  0.6719498088944145  0.9774485186221629  1.0000
  C   C17       1.0  0.30640254382708765  0.6835760396801012  0.8268950865114166  1.0000
  C   C18       1.0  0.22677100967124098  0.6317293274899636  0.7560139791308109  1.0000
  C   C19       1.0  0.1498273297953232  0.566987428664649  0.8344976303006635  1.0000
  S   S1        1.0  0.4135801446970635  0.7373269447400477  0.06817451312794898  1.0000
  C   C20       1.0  0.362819167233525  0.9178114886002064  0.08001059316621231  1.0000
  H   H10       1.0  0.9196907948904866  0.49962098025842683  0.09676972947375397  1.0000
  H   H11       1.0  0.36527182493100385  0.7318892006721243  0.7644250305804783  1.0000
  H   H12       1.0  0.22643659633916013  0.6392000448449224  0.6389588169925573  1.0000
  H   H13       1.0  0.34870070647150064  0.968202405646292  0.9700775147283563  1.0000
  H   H14       1.0  0.29474314827856185  0.9123949445548377  0.14337304138973517  1.0000
  H   H15       1.0  0.4149903360610309  0.9850907719362654  0.1350486502865265  1.0000
  Zn  Zn1       1.0  0.04563947587758488  0.5629711286340756  0.41130049683013103  1.0000
  Zn  Zn2       1.0  0.2567670461609086  0.5629669885366966  0.4112956538306872  1.0000
  C   C21       1.0  0.1503865373222679  0.5597240445496214  0.6745068949079343  1.0000
  C   C22       1.0  0.15202227726423279  0.5662158932934429  0.14808939819507597  1.0000
  C   C23       1.0  0.14941267910339381  0.826271504658337  0.40570722721867836  1.0000
  C   C24       1.0  0.15299607508916102  0.2996667014971634  0.41688914172158  1.0000
  O   O1        1.0  0.23195413238600393  0.568646056531577  0.20178173557357337  1.0000
  O   O2        1.0  0.23069563171134844  0.5572896473396378  0.6208104663274114  1.0000
  O   O3        1.0  0.2299081439147932  0.7725301065785439  0.4037528337541054  1.0000
  O   O4        1.0  0.2327415484206618  0.35340560658319187  0.41883926009929767  1.0000
  O   O5        1.0  0.06966490157036742  0.7725325105904908  0.4037568905555937  1.0000
  O   O6        1.0  0.07045237771340407  0.5572937830420588  0.6208144472857253  1.0000
  O   O7        1.0  0.07171088444951026  0.56865012553541  0.20178398384059548  1.0000
  O   O8        1.0  0.07249830019860104  0.35340966629941417  0.4188416164079754  1.0000
