data_image0
_chemical_formula_structural       NC8NH4C7NH3C7NH4Zn2C4O8
_chemical_formula_sum              "N4 C26 H11 Zn2 O8"
_cell_length_a       14.927258825633057
_cell_length_b       9.275154477615127
_cell_length_c       9.275157849593906
_cell_angle_alpha    86.33461140486662
_cell_angle_beta     89.74087939768596
_cell_angle_gamma    89.43370909507247

_space_group_name_H-M_alt    "P 1"
_space_group_IT_number       1

loop_
  _space_group_symop_operation_xyz
  'x, y, z'

loop_
  _atom_site_type_symbol
  _atom_site_label
  _atom_site_symmetry_multiplicity
  _atom_site_fract_x
  _atom_site_fract_y
  _atom_site_fract_z
  _atom_site_occupancy
  N   N1        1.0  0.8384217021689386  0.5626393777602345  0.41656690894780324  1.0000
  C   C1        1.0  0.7608952779564048  0.56263935140681  0.41656691849350413  1.0000
  C   C2        1.0  0.6644626360544045  0.5626393516474646  0.4165669735645175  1.0000
  C   C3        1.0  0.6182109920981664  0.47347815232500684  0.326493345296601  1.0000
  C   C4        1.0  0.5244996811764514  0.47347806223715816  0.32649331648094315  1.0000
  C   C5        1.0  0.476646638571298  0.5626394038344766  0.41656688597169383  1.0000
  C   C6        1.0  0.5228982827778126  0.651800612429073  0.5066404062290466  1.0000
  C   C7        1.0  0.6166096606910649  0.6518007025140133  0.5066404350506164  1.0000
  C   C8        1.0  0.380213997585809  0.5626393057049701  0.4165668306561501  1.0000
  N   N2        1.0  0.3026875727070405  0.5626393869938453  0.4165668425778446  1.0000
  H   H1        1.0  0.6545300915031772  0.4041055117488993  0.25641102532787285  1.0000
  H   H2        1.0  0.48942643548703396  0.40410548901567317  0.2564111224483201  1.0000
  H   H3        1.0  0.4865791833728018  0.7211732530051804  0.5767227261977745  1.0000
  H   H4        1.0  0.6516828391386688  0.7211732664662679  0.5767227370878911  1.0000
  C   C9        1.0  0.07315606052732293  0.13923400377650386  0.4148991884738915  1.0000
  C   C10       1.0  0.04893082366554479  0.22118942504839254  0.28783101568437885  1.0000
  C   C11       1.0  0.017399611669952856  0.15399215651027173  0.16749383400322104  1.0000
  C   C12       1.0  0.009572842868410087  0.003922803705246113  0.17280759387349764  1.0000
  C   C13       1.0  0.03463667433977058  0.9207318148678704  0.29697934876661236  1.0000
  C   C14       1.0  0.06796184209570288  0.9860337621880139  0.41824705977446297  1.0000
  C   C15       1.0  0.991986934885483  0.23951464182325852  0.03889415843618238  1.0000
  N   N3        1.0  0.9715621996171411  0.30825913119092374  0.9355329597909153  1.0000
  H   H5        1.0  0.08951153859388228  0.2193117254776666  0.7686550341816998  1.0000
  H   H6        1.0  0.9848617867371743  0.950905583937548  0.08032091200682134  1.0000
  H   H7        1.0  0.08277932872043478  0.6895460784287964  0.6552735386195143  1.0000
  C   C16       1.0  0.07177264459540277  0.5585583342007803  0.9933592193376907  1.0000
  C   C17       1.0  0.1486983310511154  0.6055619315214509  0.06324107525779099  1.0000
  C   C18       1.0  0.220959066942503  0.6639031713886239  0.9835935575698271  1.0000
  C   C19       1.0  0.21713499797987668  0.6761683190861305  0.8329831010457109  1.0000
  C   C20       1.0  0.14205827165891582  0.6279971694391451  0.7617550872189778  1.0000
  C   C21       1.0  0.06934527836250348  0.5667093704828885  0.8397870152279285  1.0000
  C   C22       1.0  0.2987504621231414  0.7129147119817696  0.056790943984904585  1.0000
  N   N4        1.0  0.36127482923972676  0.7523067750570827  0.11562927494585674  1.0000
  H   H8        1.0  0.8541033103765776  0.5099440909846824  0.10100464633874817  1.0000
  H   H9        1.0  0.2726391321027535  0.7217756884530284  0.7703406097723366  1.0000
  H   H10       1.0  0.14181359348345413  0.6355775379300781  0.6447206165041859  1.0000
  H   H11       1.0  0.9237656686990761  0.527924300206079  0.5622271860749839  1.0000
  Zn  Zn1       1.0  0.9723988121832965  0.5626355894816704  0.4165752054860874  1.0000
  Zn  Zn2       1.0  0.16871051445361962  0.5626314525619478  0.4165703335697415  1.0000
  C   C23       1.0  0.06983731549385874  0.5594247314361454  0.6797713040871995  1.0000
  C   C24       1.0  0.07127414329598468  0.5658441311613598  0.15337438356025213  1.0000
  C   C25       1.0  0.06895551489876883  0.8259152579589542  0.41187119783699466  1.0000
  C   C26       1.0  0.07215588730901734  0.2993518730925251  0.4212745597992169  1.0000
  O   O1        1.0  0.14560614821463114  0.5682814509891034  0.20707506069452242  1.0000
  O   O2        1.0  0.1445013581165231  0.556983180074226  0.6260665101153038  1.0000
  O   O3        1.0  0.1437882844007834  0.7721776649262286  0.4097352848325808  1.0000
  O   O4        1.0  0.14631915518910965  0.35308697541214773  0.42340617796077074  1.0000
  O   O5        1.0  0.9947901044562689  0.7721800666343785  0.4097393610891469  1.0000
  O   O6        1.0  0.9955031677625287  0.556987313331309  0.6260705163771987  1.0000
  O   O7        1.0  0.9966079631975262  0.5682855173158055  0.2070773340354115  1.0000
  O   O8        1.0  0.9973209699217289  0.3530910324667107  0.42340855931222343  1.0000
