data_image0
_chemical_formula_structural       NC9NC5H8C9H10C6SCNH5Zn2C4O8
_chemical_formula_sum              "N3 C34 H23 S1 Zn2 O8"
_cell_length_a       17.807436237873137
_cell_length_b       9.272676604525724
_cell_length_c       10.302218930750286
_cell_angle_alpha    85.8010258303436
_cell_angle_beta     89.41007646359061
_cell_angle_gamma    88.94495835625186

_space_group_name_H-M_alt    "P 1"
_space_group_IT_number       1

loop_
  _space_group_symop_operation_xyz
  'x, y, z'

loop_
  _atom_site_type_symbol
  _atom_site_label
  _atom_site_symmetry_multiplicity
  _atom_site_fract_x
  _atom_site_fract_y
  _atom_site_fract_z
  _atom_site_occupancy
  N   N1        1.0  0.7148932181518816  0.540892466234026  0.563428531726345  1.0000
  C   C1        1.0  0.6541072969073795  0.5018288257221402  0.5522566926215675  1.0000
  C   C2        1.0  0.5784962918567399  0.45323795884178925  0.5383601380336591  1.0000
  C   C3        1.0  0.559987211361165  0.37397707978280215  0.4330775813670489  1.0000
  C   C4        1.0  0.48657219592826556  0.3266753312337037  0.4195018396094327  1.0000
  C   C5        1.0  0.43061542969047  0.35821535453409825  0.5111745946338302  1.0000
  C   C6        1.0  0.3525948495614001  0.30807333666316095  0.49682964261411144  1.0000
  C   C7        1.0  0.2908794786257465  0.3988296914045555  0.5231121393995217  1.0000
  C   C8        1.0  0.217321027723192  0.35130253803048594  0.5095492061236515  1.0000
  C   C9        1.0  0.1545706530201516  0.4450466192299701  0.5362070378201038  1.0000
  N   N2        1.0  0.1041323073145887  0.5204103747126727  0.5576391831841065  1.0000
  C   C10       1.0  0.204892958572474  0.21273263909833925  0.46967732813023444  1.0000
  C   C11       1.0  0.2657508808525281  0.12196090789408598  0.44338638442206885  1.0000
  C   C12       1.0  0.3391876610596965  0.16905010188585856  0.45674514040540104  1.0000
  C   C13       1.0  0.44981871350624214  0.4380250105667993  0.6166784430801244  1.0000
  C   C14       1.0  0.5232855094001544  0.4851154234780046  0.6300977575365732  1.0000
  H   H1        1.0  0.6022435919570752  0.3490290685196209  0.3612863356857867  1.0000
  H   H2        1.0  0.473344961127622  0.2670961770678222  0.3363721113595499  1.0000
  H   H3        1.0  0.2999261251215555  0.5070244477842669  0.5523992729570124  1.0000
  H   H4        1.0  0.14823605926378597  0.1749496742311256  0.4589393612287121  1.0000
  H   H5        1.0  0.2560102478744772  0.014676815078285  0.4129026479935405  1.0000
  H   H6        1.0  0.3854581222466163  0.09606714153303852  0.4374200036614722  1.0000
  H   H7        1.0  0.4082764406382383  0.46237434704507785  0.6897615586074837  1.0000
  H   H8        1.0  0.537047715829765  0.5460498089683519  0.7121913425790596  1.0000
  C   C15       1.0  0.9073879580323332  0.10727490753102864  0.5589069004260006  1.0000
  C   C16       1.0  0.8773391675301444  0.17295063149752596  0.6668811238938475  1.0000
  C   C17       1.0  0.8541626810567232  0.0900285828420271  0.7779262736989947  1.0000
  C   C18       1.0  0.8602871038293128  0.9389567393809993  0.7847333250073812  1.0000
  C   C19       1.0  0.8891051779950396  0.8718961523934962  0.6757770932904423  1.0000
  C   C20       1.0  0.9116447126025485  0.9540164779329476  0.5621719506109397  1.0000
  C   C21       1.0  0.834427278606393  0.8566964098464256  0.9098382998828958  1.0000
  C   C22       1.0  0.7964657027995864  0.7126000566310894  0.89747583985368  1.0000
  C   C23       1.0  0.875781705829375  0.715867640741703  0.9512321456048551  1.0000
  H   H9        1.0  0.9240350849077357  0.4052330339310888  0.3459037381832788  1.0000
  H   H10       1.0  0.8733761002465922  0.28968170292006934  0.6668152564597714  1.0000
  H   H11       1.0  0.8319246860513644  0.14464211023567808  0.8598346140325543  1.0000
  H   H12       1.0  0.8926884453378094  0.7553072123784813  0.6769294385121274  1.0000
  H   H13       1.0  0.9310864899093536  0.8761900928951447  0.24397661416981095  1.0000
  H   H14       1.0  0.8131781012343604  0.9179343609558795  0.991900989227875  1.0000
  H   H15       1.0  0.7929654318709783  0.6735377705990452  0.7985495288306594  1.0000
  H   H16       1.0  0.7529482609608915  0.6861048569672954  0.9730255584319807  1.0000
  H   H17       1.0  0.9204388013059672  0.6786629594611141  0.88503692076798  1.0000
  H   H18       1.0  0.8786187220686513  0.6912762319151459  0.05821701896010956  1.0000
  C   C24       1.0  0.9094466346044339  0.5307169142179216  0.17926555245547116  1.0000
  C   C25       1.0  0.9798469578933288  0.459818138781678  0.18173309637694457  1.0000
  C   C26       1.0  0.014842410978482604  0.4240874527376177  0.06598244760140748  1.0000
  C   C27       1.0  0.9800291921451428  0.4596299426906323  0.9465754372189079  1.0000
  C   C28       1.0  0.909585997023159  0.5305744746074972  0.941813279570527  1.0000
  C   C29       1.0  0.8746685167833576  0.5656763606317932  0.05871978696508329  1.0000
  S   S1        1.0  0.10484069323928935  0.3341384450216549  0.07057103339240478  1.0000
  C   C30       1.0  0.06467733620424565  0.16102534505795818  0.08274261415333206  1.0000
  N   N3        1.0  0.03832417900693218  0.047542952112452186  0.09072247041461146  1.0000
  H   H19       1.0  0.8826647627682638  0.5577661147194175  0.5056566841574881  1.0000
  H   H20       1.0  0.007743496298256772  0.4318121878880896  0.2732857349340341  1.0000
  H   H21       1.0  0.008050638578410922  0.43149492733107286  0.8578585160813502  1.0000
  H   H22       1.0  0.8203711604687955  0.620336579121922  0.05596993540002293  1.0000
  H   H23       1.0  0.7768445727531301  0.664434567575614  0.7256097299994808  1.0000
  Zn  Zn1       1.0  0.8272191920971379  0.5349779286719685  0.5617653448803215  1.0000
  Zn  Zn2       1.0  0.9918062580424233  0.5263131580501359  0.5593129986645335  1.0000
  C   C31       1.0  0.9095291148376221  0.5248579429430373  0.7976533119233779  1.0000
  C   C32       1.0  0.9094981417558908  0.5364348682481961  0.32342513929110983  1.0000
  C   C33       1.0  0.9108352630436387  0.7939654798781628  0.5563809501962618  1.0000
  C   C34       1.0  0.9081919286925286  0.2673256020884125  0.564697564397173  1.0000
  O   O1        1.0  0.9719753301798826  0.5350593407433653  0.37087573668532325  1.0000
  O   O2        1.0  0.9719696956445559  0.5196560224668558  0.748341062548018  1.0000
  O   O3        1.0  0.9730235850963863  0.736963805946103  0.5535119417377219  1.0000
  O   O4        1.0  0.9709213845996907  0.31775157055253134  0.5657047610218091  1.0000
  O   O5        1.0  0.8481040093743893  0.7435395191280052  0.5553735833530877  1.0000
  O   O6        1.0  0.8470501286144234  0.5262334678318479  0.7502026416144791  1.0000
  O   O7        1.0  0.847055762661816  0.5416367361564232  0.372735754545775  1.0000
  O   O8        1.0  0.8460018170445046  0.3243289556356075  0.5675648761861138  1.0000
