data_image0
_chemical_formula_structural       NC12NC2H8C9H8C7NH4Zn2C4O8
_chemical_formula_sum              "N3 C34 H20 Zn2 O8"
_cell_length_a       19.240039667572717
_cell_length_b       9.275152443626249
_cell_length_c       9.275157849593905
_cell_angle_alpha    85.91609934181939
_cell_angle_beta     89.74087680363883
_cell_angle_gamma    90.57354334366605

_space_group_name_H-M_alt    "P 1"
_space_group_IT_number       1

loop_
  _space_group_symop_operation_xyz
  'x, y, z'

loop_
  _atom_site_type_symbol
  _atom_site_label
  _atom_site_symmetry_multiplicity
  _atom_site_fract_x
  _atom_site_fract_y
  _atom_site_fract_z
  _atom_site_occupancy
  N   N1        1.0  0.6654990514753786  0.5634245843944039  0.4049820449908368  1.0000
  C   C1        1.0  0.6053506833029515  0.5634246768041087  0.40498195375103685  1.0000
  C   C2        1.0  0.5305326471165304  0.5634248056164  0.4049818009462809  1.0000
  C   C3        1.0  0.49346800409210284  0.4929224486547173  0.519977085355452  1.0000
  C   C4        1.0  0.42079645582210295  0.49280020804490454  0.5200735374893397  1.0000
  C   C5        1.0  0.3842004132152154  0.5634249060042427  0.4049815479492538  1.0000
  C   C6        1.0  0.42198004953875895  0.6340498137427311  0.2898897735697741  1.0000
  C   C7        1.0  0.4946499362781637  0.6339273128526388  0.2899863625299339  1.0000
  C   C8        1.0  0.3069953225792132  0.5634248176096199  0.40498144237072387  1.0000
  C   C9        1.0  0.2691003388140129  0.43806391741660305  0.4518729374504573  1.0000
  C   C10       1.0  0.1964304405522153  0.4381816848894781  0.451771193020227  1.0000
  C   C11       1.0  0.1606630348183378  0.5634246747772005  0.40498151044972985  1.0000
  C   C12       1.0  0.0858449964640049  0.5634245510895206  0.4049817868062393  1.0000
  N   N2        1.0  0.025696678899270294  0.5634245079695299  0.40498201823230406  1.0000
  C   C13       1.0  0.19784314047338092  0.6886677483280081  0.35819176890153637  1.0000
  C   C14       1.0  0.2705146281655483  0.6887857141394684  0.3580898433656383  1.0000
  H   H1        1.0  0.5207237561243706  0.4383452248507962  0.6097605338559928  1.0000
  H   H2        1.0  0.39324567843396785  0.439121397695681  0.6110917711561252  1.0000
  H   H3        1.0  0.39534429640438984  0.6877286535982263  0.19887148337669136  1.0000
  H   H4        1.0  0.5228239545177197  0.6885044282323952  0.20020322044447547  1.0000
  H   H5        1.0  0.29564118971603587  0.3393645454004055  0.48679627697854816  1.0000
  H   H6        1.0  0.1681655557574607  0.34049213928955435  0.4878373439786752  1.0000
  H   H7        1.0  0.17067820165416916  0.7863572668282245  0.3221256341820138  1.0000
  H   H8        1.0  0.29816025661179824  0.7874851736254935  0.3231664538565875  1.0000
  C   C15       1.0  0.8435477565172885  0.1398064437918496  0.40645327156302713  1.0000
  C   C16       1.0  0.818736148275077  0.22136617901230407  0.28402418285128483  1.0000
  C   C17       1.0  0.8003900512657589  0.1547230812515148  0.1593029149132874  1.0000
  C   C18       1.0  0.806568584303736  0.005335260560991758  0.1545412913775377  1.0000
  C   C19       1.0  0.8300232767661101  0.9220774089671937  0.27593569588622047  1.0000
  C   C20       1.0  0.8476545728673179  0.9870317293273313  0.40352321731786445  1.0000
  C   C21       1.0  0.7880136156350224  0.9369412618509502  0.025384574430098894  1.0000
  C   C22       1.0  0.7724781864157583  0.8796438425173647  0.9172360743236174  1.0000
  C   C23       1.0  0.7536290190051345  0.8101115575328645  0.7860168365528764  1.0000
  H   H9        1.0  0.9428039526548261  0.2242310373651921  0.6942590822302961  1.0000
  H   H10       1.0  0.815075907148497  0.3378792976525815  0.2835708797516874  1.0000
  H   H11       1.0  0.7820064363891257  0.22006353251864597  0.06596953827805607  1.0000
  H   H12       1.0  0.8329581631156887  0.8057286423690077  0.27191554069555113  1.0000
  H   H13       1.0  0.9122461813109469  0.6936290687974094  0.6003727295779822  1.0000
  H   H14       1.0  0.7663062126593722  0.6935194501247216  0.799479872699191  1.0000
  H   H15       1.0  0.6971017186752478  0.8225040344456107  0.7662882037027887  1.0000
  H   H16       1.0  0.7831796147226546  0.8615612785122888  0.6927360731115209  1.0000
  C   C24       1.0  0.8465036387281342  0.5593414846834606  0.9818045940436964  1.0000
  C   C25       1.0  0.9066375763484977  0.6063686995179913  0.051337977986428474  1.0000
  C   C26       1.0  0.9632611835558137  0.6647392541718012  0.9712579357543878  1.0000
  C   C27       1.0  0.960412157824367  0.6770105651937735  0.8205565504390555  1.0000
  C   C28       1.0  0.9017015050641537  0.6288152112949932  0.7496856642396215  1.0000
  C   C29       1.0  0.844698704063492  0.5674966169169637  0.8281719614748471  1.0000
  C   C30       1.0  0.024086069514027475  0.7137754212499706  0.04409196401526926  1.0000
  N   N3        1.0  0.07297370022021665  0.753187277378887  0.10263825299673024  1.0000
  H   H17       1.0  0.6771591869837787  0.5107028178776463  0.08981044375012792  1.0000
  H   H18       1.0  0.003912908246479048  0.7226408509683636  0.7575759398079756  1.0000
  H   H19       1.0  0.9015845112176624  0.6363993889260446  0.6325949956207104  1.0000
  H   H20       1.0  0.731379039587578  0.5286920605321506  0.5508996802055854  1.0000
  Zn  Zn1       1.0  0.7694442788349857  0.5634207910960629  0.40499036007379385  1.0000
  Zn  Zn2       1.0  0.9217513881901094  0.5634166475315343  0.4049855048481281  1.0000
  C   C31       1.0  0.8450104513366365  0.5602083173283658  0.6682102557968479  1.0000
  C   C32       1.0  0.8461868873986564  0.5666309427678972  0.14176574421966315  1.0000
  C   C33       1.0  0.8468869616997232  0.8268327553352817  0.3983344918667988  1.0000
  C   C34       1.0  0.8443103164987014  0.30000477234485556  0.4116415909754887  1.0000
  O   O1        1.0  0.9038803064975611  0.5690694856197318  0.19544834671397182  1.0000
  O   O2        1.0  0.9029145997011364  0.5577655373505179  0.6145235572262528  1.0000
  O   O3        1.0  0.9044291231871471  0.7730681574267642  0.3965969632743833  1.0000
  O   O4        1.0  0.9023657313199018  0.3537668748231948  0.41337483258060903  1.0000
  O   O5        1.0  0.7888298837302755  0.7730705638073139  0.3966010323353846  1.0000
  O   O6        1.0  0.7873153688062153  0.5577696761501039  0.6145275434555488  1.0000
  O   O7        1.0  0.7882810791001117  0.5690735574553043  0.19545060051845797  1.0000
  O   O8        1.0  0.7867665036391832  0.3537709373819691  0.41337719446439913  1.0000
