data_image0
_chemical_formula_structural       NC10NC3NCH9C7OC4NC3H8C6NCOC6H11Zn2C4O8
_chemical_formula_sum              "N5 C45 H28 O10 Zn2"
_cell_length_a       19.437513618241372
_cell_length_b       10.299371701877257
_cell_length_c       10.299662537453274
_cell_angle_alpha    85.55951811676591
_cell_angle_beta     90.33361086240306
_cell_angle_gamma    89.53225479237402

_space_group_name_H-M_alt    "P 1"
_space_group_IT_number       1

loop_
  _space_group_symop_operation_xyz
  'x, y, z'

loop_
  _atom_site_type_symbol
  _atom_site_label
  _atom_site_symmetry_multiplicity
  _atom_site_fract_x
  _atom_site_fract_y
  _atom_site_fract_z
  _atom_site_occupancy
  N   N1        1.0  0.6481546763593937  0.4110131807472215  0.5762221850373601  1.0000
  C   C1        1.0  0.5892232117024637  0.4280244066187467  0.573253580202682  1.0000
  C   C2        1.0  0.5157850753664633  0.4492783653016288  0.5695688240730188  1.0000
  C   C3        1.0  0.4740139895043989  0.34809407247929286  0.5578649619085456  1.0000
  C   C4        1.0  0.3981255904086176  0.3581619159001832  0.5506479022238671  1.0000
  C   C5        1.0  0.3585535815027293  0.4389813242414515  0.6164270078107785  1.0000
  C   C6        1.0  0.2823712297741743  0.4303767991741694  0.6079789838178173  1.0000
  C   C7        1.0  0.24922343864222224  0.3090308522869276  0.6125692311761071  1.0000
  C   C8        1.0  0.17748873082614572  0.30266226632646454  0.6053982543561358  1.0000
  C   C9        1.0  0.13793111359302754  0.4171667863759878  0.5939990609151691  1.0000
  C   C10       1.0  0.06408191369018121  0.4104600962404665  0.5866598414994395  1.0000
  N   N2        1.0  0.004712255017207804  0.40506850723213267  0.5807595677615176  1.0000
  C   C11       1.0  0.17036221965398626  0.5382018357540427  0.5901539664099994  1.0000
  C   C12       1.0  0.2420813517522422  0.544824383976148  0.597387077114865  1.0000
  C   C13       1.0  0.3872393094427623  0.5312257961631109  0.7063889791710154  1.0000
  N   N3        1.0  0.4442322254051204  0.5944469775416343  0.6860121513418878  1.0000
  C   C14       1.0  0.4880805355463862  0.585236363261723  0.5728985809793803  1.0000
  H   H1        1.0  0.4963894404178576  0.25304391760034267  0.545701861775125  1.0000
  H   H2        1.0  0.3734088620409983  0.28867624050528584  0.4922982791229187  1.0000
  H   H3        1.0  0.2786639911054826  0.21911473047796903  0.6235508366443918  1.0000
  H   H4        1.0  0.1528854894273601  0.2084349518439601  0.6092441692543036  1.0000
  H   H5        1.0  0.1402361462448157  0.6274620198557748  0.5814842613065883  1.0000
  H   H6        1.0  0.2662031136728465  0.6394645019885499  0.5935258831966259  1.0000
  H   H7        1.0  0.3572318083157275  0.5515734725386163  0.790766022979126  1.0000
  H   H8        1.0  0.5308397149195515  0.6555457126866227  0.5786929163468955  1.0000
  H   H9        1.0  0.4584230270915459  0.6133854922507538  0.4822637756107966  1.0000
  C   C15       1.0  0.8264007923681429  0.02667097533630502  0.5783634845015087  1.0000
  C   C16       1.0  0.8297606677046455  0.03600729477113318  0.44174172674090517  1.0000
  C   C17       1.0  0.8306740902828673  0.9235604113871355  0.3727611595940783  1.0000
  C   C18       1.0  0.8297691387593915  0.8007387183048379  0.44205922953293864  1.0000
  C   C19       1.0  0.8264727325091761  0.789400534052399  0.5786296113011331  1.0000
  C   C20       1.0  0.8246266197965508  0.902971269045468  0.6459734096216012  1.0000
  C   C21       1.0  0.8349444344152188  0.9332630940988416  0.22856591553592723  1.0000
  O   O1        1.0  0.8680645659178475  0.8469847590708885  0.17404167404646032  1.0000
  C   C22       1.0  0.8016304706256264  0.04076263557043802  0.1462300171199702  1.0000
  C   C23       1.0  0.8311113945955618  0.08496056370349114  0.02663524202232859  1.0000
  C   C24       1.0  0.7996115618595135  0.18541862392590588  0.9474438245925644  1.0000
  C   C25       1.0  0.8304274828342126  0.23077916832575007  0.8256798950950031  1.0000
  N   N4        1.0  0.8552021097005118  0.2672394328035114  0.7277993925851609  1.0000
  C   C26       1.0  0.738117278620482  0.24160719842145545  0.9868330010471498  1.0000
  C   C27       1.0  0.7080557867033596  0.19720897782474053  0.10468084305132641  1.0000
  C   C28       1.0  0.7393580814289485  0.09705168979407364  0.18385834910604992  1.0000
  H   H10       1.0  0.8324417486315312  0.13090623537038248  0.3888893674587699  1.0000
  H   H11       1.0  0.8309832175015688  0.7139009084159259  0.3890625657674669  1.0000
  H   H12       1.0  0.8220367778068908  0.8949697509361162  0.7512990517066376  1.0000
  H   H13       1.0  0.8257854712408447  0.45757483553789047  0.6311459901087293  1.0000
  H   H14       1.0  0.8788276813871357  0.04208574949662979  0.9956656588913906  1.0000
  H   H15       1.0  0.7133228093437411  0.31925949232467  0.9262781537733488  1.0000
  H   H16       1.0  0.6602221671742984  0.24010236760031753  0.1344959300686126  1.0000
  H   H17       1.0  0.7144908316678678  0.06272246629967682  0.273697981148612  1.0000
  C   C29       1.0  0.8264841351196455  0.40817550204471814  0.19712121960379816  1.0000
  C   C30       1.0  0.8967190794260382  0.43937913670997125  0.19421227513697503  1.0000
  C   C31       1.0  0.932302418815867  0.4532109751391469  0.07606544641394275  1.0000
  C   C32       1.0  0.8965986622476106  0.43907107051006306  0.9590673383645583  1.0000
  C   C33       1.0  0.8263894081385749  0.4078960118762429  0.9598718727373878  1.0000
  C   C34       1.0  0.7917872347706433  0.39217872070954923  0.07947290089670833  1.0000
  N   N5        1.0  0.003949084547859366  0.4871020870960656  0.076505818551867  1.0000
  C   C35       1.0  0.052638168508368555  0.44644020129133155  0.9828985575677299  1.0000
  O   O2        1.0  0.04008043758037094  0.3480911718896553  0.9211529649163341  1.0000
  C   C36       1.0  0.11870040847578989  0.5156676182798343  0.9614132590694853  1.0000
  C   C37       1.0  0.12701268143265554  0.6435995286501348  0.9979173831205742  1.0000
  C   C38       1.0  0.189433984612855  0.7081144699389709  0.9765439360349998  1.0000
  C   C39       1.0  0.24404335878775596  0.6461768568965294  0.9182428201193056  1.0000
  C   C40       1.0  0.2362894981187318  0.5196820223919711  0.8807403372273148  1.0000
  C   C41       1.0  0.17398545768960516  0.4547080930115481  0.9017860381669256  1.0000
  H   H18       1.0  0.6938390909026909  0.35052379696674807  0.40977727649172246  1.0000
  H   H19       1.0  0.9242854058384399  0.45213873285812034  0.28398804587750615  1.0000
  H   H20       1.0  0.9232479021859996  0.45459071290309505  0.867298816780521  1.0000
  H   H21       1.0  0.7376461822047512  0.36810724727026595  0.08085127880004395  1.0000
  H   H22       1.0  0.7992351685656934  0.39762168333186537  0.6325990145047062  1.0000
  H   H23       1.0  0.02273008727249204  0.5339928768665312  0.15568382327595387  1.0000
  H   H24       1.0  0.08521349854985583  0.6948317540075952  0.04117688688564325  1.0000
  H   H25       1.0  0.19536178101089052  0.8064953849245682  0.004769468882897196  1.0000
  H   H26       1.0  0.2922894510283782  0.6963507073758906  0.9017569923818209  1.0000
  H   H27       1.0  0.27859754914626467  0.4718586303077337  0.8352915166879131  1.0000
  H   H28       1.0  0.16923660510006666  0.3565301435394578  0.8722005481343783  1.0000
  Zn  Zn1       1.0  0.7510494957392082  0.4092941844076001  0.5775390835418965  1.0000
  Zn  Zn2       1.0  0.9018174395154289  0.4067768300890681  0.5794533355861475  1.0000
  C   C42       1.0  0.8264052730872256  0.40277518898106507  0.8156938482369321  1.0000
  C   C43       1.0  0.826463308687385  0.41329743660277063  0.3412987198350277  1.0000
  C   C44       1.0  0.8264562341018746  0.6452303828706649  0.5734040074604145  1.0000
  C   C45       1.0  0.8264122960704111  0.17084068324067656  0.5835886286537184  1.0000
  O   O3        1.0  0.8836719675414252  0.41405541603104257  0.3904124526880506  1.0000
  O   O4        1.0  0.883625994980621  0.40010561628489616  0.7680326141985498  1.0000
  O   O5        1.0  0.8836663751823803  0.5958912639985878  0.5723818442088395  1.0000
  O   O6        1.0  0.8836315359057513  0.2182697785022758  0.5860631246514916  1.0000
  O   O7        1.0  0.7692353478991869  0.5978012368548586  0.5709292938164816  1.0000
  O   O8        1.0  0.7691949678500535  0.4020171494741269  0.766579995103948  1.0000
  O   O9        1.0  0.7692409406463052  0.41596690453555485  0.388958272151285  1.0000
  O   O10       1.0  0.7692005089948468  0.22018125768232874  0.5846090414809246  1.0000
